2016-01-31 12:19:48,334  INFO Gbl:57 JVM: 1.8.0_20; Oracle Corporation; mixed mode; 64-bit
2016-01-31 12:19:48,334  INFO Gbl:61 OS: Windows 8.1; 6.3; amd64
2016-01-31 12:19:48,334  INFO Gbl:64 CPU cores: 8
2016-01-31 12:19:48,336  INFO Gbl:65 max. Memory: 1803.0MB (1890582528B)
2016-01-31 12:19:48,336  INFO Gbl:103 MATSim-Build: r${buildNumber} (${timestamp})
2016-01-31 12:19:48,337  INFO AbstractController:61 Used Controler-Class: org.matsim.core.controler.Controler
2016-01-31 12:19:48,395  INFO ScenarioLoaderImpl:100 loading scenario from base directory: C:\MATSim\workspace-mars\dta-brt\
2016-01-31 12:19:48,396  INFO ScenarioLoaderImpl:123 loading network from ./input/specialNetwork.xml
2016-01-31 12:19:48,398  INFO MatsimXmlParser:145 starting to parse xml from file ./input/specialNetwork.xml ...
2016-01-31 12:19:48,401  INFO MatsimNetworkReader:83 using network_v1-reader.
2016-01-31 12:19:48,402  INFO MatsimXmlParser:253 Trying to load http://www.matsim.org/files/dtd/network_v1.dtd. In some cases (e.g. network interface up but no connection), this may take a bit.
2016-01-31 12:19:48,640  INFO NetworkImpl:134  node # 1
2016-01-31 12:19:48,641  INFO NetworkImpl:134  node # 2
2016-01-31 12:19:48,641  INFO NetworkImpl:134  node # 4
2016-01-31 12:19:48,642  INFO NetworkImpl:134  node # 8
2016-01-31 12:19:48,642  INFO NetworkImpl:134  node # 16
2016-01-31 12:19:48,644  INFO NetworkImpl:134  node # 32
2016-01-31 12:19:48,646  INFO NetworkImpl:134  node # 64
2016-01-31 12:19:48,651  INFO NetworkImpl:134  node # 128
2016-01-31 12:19:48,657  INFO NetworkImpl:134  node # 256
2016-01-31 12:19:48,667  INFO NetworkImpl:134  node # 512
2016-01-31 12:19:48,679  INFO NetworkImpl:134  node # 1024
2016-01-31 12:19:48,697  INFO NetworkImpl:130  link # 1
2016-01-31 12:19:48,697  INFO NetworkImpl:130  link # 2
2016-01-31 12:19:48,698  INFO NetworkImpl:130  link # 4
2016-01-31 12:19:48,698  INFO NetworkImpl:130  link # 8
2016-01-31 12:19:48,699  INFO NetworkImpl:130  link # 16
2016-01-31 12:19:48,701  INFO NetworkImpl:130  link # 32
2016-01-31 12:19:48,703  INFO NetworkImpl:130  link # 64
2016-01-31 12:19:48,709  INFO NetworkImpl:130  link # 128
2016-01-31 12:19:48,715  INFO NetworkImpl:130  link # 256
2016-01-31 12:19:48,719  WARN LinkImpl:111 [from=to=[id=56][coord=[x=1063203.287337012][y=877613.5198577307]][type=null][nof_inlinks=1][nof_outlinks=1] link is a loop]
2016-01-31 12:19:48,719  WARN LinkImpl:113  Future occurences of this logging statement are suppressed.
2016-01-31 12:19:48,724  WARN NodeImpl:98 [id=56][coord=[x=1063203.287337012][y=877613.5198577307]][type=null][nof_inlinks=1][nof_outlinks=2][inlink_id=56-56 is now in- and out-link]
2016-01-31 12:19:48,725  WARN NodeImpl:99  This message given only once.
2016-01-31 12:19:48,730  INFO NetworkImpl:130  link # 512
2016-01-31 12:19:48,740  INFO NetworkImpl:130  link # 1024
2016-01-31 12:19:48,758  INFO NetworkImpl:130  link # 2048
2016-01-31 12:19:48,768  INFO ScenarioLoaderImpl:147 no facilities file set in config, therefore not loading any facilities.  This is not a problem except if you are using facilities
2016-01-31 12:19:48,768  INFO ScenarioLoaderImpl:155 no facility-attributes file set in config, not loading any facility attributes
2016-01-31 12:19:48,768  INFO ScenarioLoaderImpl:162 loading population from ./input/plans_sitm_cali_01.04.2014_troncal.xml
2016-01-31 12:19:48,773  INFO MatsimXmlParser:145 starting to parse xml from file ./input/plans_sitm_cali_01.04.2014_troncal.xml ...
2016-01-31 12:19:48,776  INFO MatsimPopulationReader:86 using population_v5-reader.
2016-01-31 12:19:48,776  INFO MatsimXmlParser:253 Trying to load http://www.matsim.org/files/dtd/population_v5.dtd. In some cases (e.g. network interface up but no connection), this may take a bit.
2016-01-31 12:19:49,024  INFO PopulationImpl:176  person # 1
2016-01-31 12:19:49,024  INFO PopulationImpl:176  person # 2
2016-01-31 12:19:49,025  INFO PopulationImpl:176  person # 4
2016-01-31 12:19:49,026  INFO PopulationImpl:176  person # 8
2016-01-31 12:19:49,028  INFO PopulationImpl:176  person # 16
2016-01-31 12:19:49,031  INFO PopulationImpl:176  person # 32
2016-01-31 12:19:49,037  INFO PopulationImpl:176  person # 64
2016-01-31 12:19:49,047  INFO PopulationImpl:176  person # 128
2016-01-31 12:19:49,059  INFO PopulationImpl:176  person # 256
2016-01-31 12:19:49,073  INFO PopulationImpl:176  person # 512
2016-01-31 12:19:49,100  INFO PopulationImpl:176  person # 1024
2016-01-31 12:19:49,173  INFO PopulationImpl:176  person # 2048
2016-01-31 12:19:49,272  INFO PopulationImpl:176  person # 4096
2016-01-31 12:19:49,438  INFO PopulationImpl:176  person # 8192
2016-01-31 12:19:49,625  INFO PopulationImpl:176  person # 16384
2016-01-31 12:19:49,938  INFO PopulationImpl:176  person # 32768
2016-01-31 12:19:50,397  INFO PopulationImpl:176  person # 59487
2016-01-31 12:19:50,397  INFO ScenarioLoaderImpl:178 no person-attributes file set in config, not loading any person attributes
2016-01-31 12:19:50,397  INFO ScenarioLoaderImpl:190 no households file set in config, not loading households
2016-01-31 12:19:50,397  INFO ScenarioLoaderImpl:198 no household-attributes file set in config, not loading any household attributes
2016-01-31 12:19:50,402 DEBUG MatsimFileTypeGuesser:147 Detected public id: null
2016-01-31 12:19:50,402 DEBUG MatsimFileTypeGuesser:148 Detected system Id: http://www.matsim.org/files/dtd/transitSchedule_v1.dtd
2016-01-31 12:19:50,404  INFO MatsimXmlParser:145 starting to parse xml from file ./input/transitSchedule.xml ...
2016-01-31 12:19:50,406  INFO MatsimXmlParser:253 Trying to load http://www.matsim.org/files/dtd/transitSchedule_v1.dtd. In some cases (e.g. network interface up but no connection), this may take a bit.
2016-01-31 12:19:50,625  INFO ScenarioLoaderImpl:225 loading transit vehicles from ./input/transitVehicles.xml
2016-01-31 12:19:50,626  INFO MatsimXmlParser:145 starting to parse xml from file ./input/transitVehicles.xml ...
2016-01-31 12:19:50,628  INFO MatsimXmlParser:253 Trying to load http://www.matsim.org/files/dtd/vehicleDefinitions_v1.0.xsd. In some cases (e.g. network interface up but no connection), this may take a bit.
2016-01-31 12:19:50,831  INFO MatsimXmlParser:253 Trying to load http://www.matsim.org/files/dtd/matsimCommon.xsd. In some cases (e.g. network interface up but no connection), this may take a bit.
2016-01-31 12:19:51,061  INFO MatsimXmlParser:253 Trying to load http://www.matsim.org/files/dtd/vehicleDefinitionsEnumTypes.xsd. In some cases (e.g. network interface up but no connection), this may take a bit.
2016-01-31 12:19:51,283  INFO Counter:51  vehicles # 1
2016-01-31 12:19:51,283  INFO Counter:51  vehicles # 2
2016-01-31 12:19:51,284  INFO Counter:51  vehicles # 4
2016-01-31 12:19:51,285  INFO Counter:51  vehicles # 8
2016-01-31 12:19:51,285  INFO Counter:51  vehicles # 16
2016-01-31 12:19:51,286  INFO Counter:51  vehicles # 32
2016-01-31 12:19:51,287  INFO Counter:51  vehicles # 64
2016-01-31 12:19:51,293  INFO Controler:255 setting up transit simulation
2016-01-31 12:19:51,946  INFO EventsManagerImpl:144 adding Event-Handler: org.matsim.core.trafficmonitoring.TravelTimeCalculator
2016-01-31 12:19:51,946  INFO EventsManagerImpl:148   org.matsim.api.core.v01.events.handler.LinkEnterEventHandler
2016-01-31 12:19:51,947  INFO EventsManagerImpl:207     > org.matsim.api.core.v01.events.LinkEnterEvent
2016-01-31 12:19:51,948  INFO EventsManagerImpl:148   org.matsim.api.core.v01.events.handler.LinkLeaveEventHandler
2016-01-31 12:19:51,949  INFO EventsManagerImpl:207     > org.matsim.api.core.v01.events.LinkLeaveEvent
2016-01-31 12:19:51,949  INFO EventsManagerImpl:148   org.matsim.api.core.v01.events.handler.Wait2LinkEventHandler
2016-01-31 12:19:51,950  INFO EventsManagerImpl:207     > org.matsim.api.core.v01.events.Wait2LinkEvent
2016-01-31 12:19:51,950  INFO EventsManagerImpl:148   org.matsim.api.core.v01.events.handler.VehicleLeavesTrafficEventHandler
2016-01-31 12:19:51,951  INFO EventsManagerImpl:207     > org.matsim.api.core.v01.events.VehicleLeavesTrafficEvent
2016-01-31 12:19:51,952  INFO EventsManagerImpl:148   org.matsim.core.api.experimental.events.handler.VehicleArrivesAtFacilityEventHandler
2016-01-31 12:19:51,953  INFO EventsManagerImpl:207     > org.matsim.core.api.experimental.events.VehicleArrivesAtFacilityEvent
2016-01-31 12:19:51,953  INFO EventsManagerImpl:148   org.matsim.api.core.v01.events.handler.VehicleAbortsEventHandler
2016-01-31 12:19:51,954  INFO EventsManagerImpl:207     > org.matsim.api.core.v01.events.VehicleAbortsEvent
2016-01-31 12:19:51,954  INFO EventsManagerImpl:156 
2016-01-31 12:19:51,955  INFO EventsManagerImpl:144 adding Event-Handler: org.matsim.core.trafficmonitoring.TravelTimeCalculator
2016-01-31 12:19:51,955  INFO EventsManagerImpl:148   org.matsim.api.core.v01.events.handler.LinkEnterEventHandler
2016-01-31 12:19:51,955  INFO EventsManagerImpl:207     > org.matsim.api.core.v01.events.LinkEnterEvent
2016-01-31 12:19:51,956  INFO EventsManagerImpl:148   org.matsim.api.core.v01.events.handler.LinkLeaveEventHandler
2016-01-31 12:19:51,956  INFO EventsManagerImpl:207     > org.matsim.api.core.v01.events.LinkLeaveEvent
2016-01-31 12:19:51,956  INFO EventsManagerImpl:148   org.matsim.api.core.v01.events.handler.Wait2LinkEventHandler
2016-01-31 12:19:51,957  INFO EventsManagerImpl:207     > org.matsim.api.core.v01.events.Wait2LinkEvent
2016-01-31 12:19:51,957  INFO EventsManagerImpl:148   org.matsim.api.core.v01.events.handler.VehicleLeavesTrafficEventHandler
2016-01-31 12:19:51,957  INFO EventsManagerImpl:207     > org.matsim.api.core.v01.events.VehicleLeavesTrafficEvent
2016-01-31 12:19:51,957  INFO EventsManagerImpl:148   org.matsim.core.api.experimental.events.handler.VehicleArrivesAtFacilityEventHandler
2016-01-31 12:19:51,958  INFO EventsManagerImpl:207     > org.matsim.core.api.experimental.events.VehicleArrivesAtFacilityEvent
2016-01-31 12:19:51,958  INFO EventsManagerImpl:148   org.matsim.api.core.v01.events.handler.VehicleAbortsEventHandler
2016-01-31 12:19:51,958  INFO EventsManagerImpl:207     > org.matsim.api.core.v01.events.VehicleAbortsEvent
2016-01-31 12:19:51,958  INFO EventsManagerImpl:156 
2016-01-31 12:19:51,961  INFO CalcLinkStats:151  resetting `count' to zero.  This info is here since we want to check when this is happening during normal simulation runs.  kai, jan'11
2016-01-31 12:19:51,967  INFO EventsManagerImpl:144 adding Event-Handler: org.matsim.analysis.VolumesAnalyzer
2016-01-31 12:19:51,967  INFO EventsManagerImpl:148   org.matsim.api.core.v01.events.handler.LinkLeaveEventHandler
2016-01-31 12:19:51,968  INFO EventsManagerImpl:207     > org.matsim.api.core.v01.events.LinkLeaveEvent
2016-01-31 12:19:51,968  INFO EventsManagerImpl:148   org.matsim.api.core.v01.events.handler.PersonDepartureEventHandler
2016-01-31 12:19:51,968  INFO EventsManagerImpl:207     > org.matsim.api.core.v01.events.PersonDepartureEvent
2016-01-31 12:19:51,968  INFO EventsManagerImpl:156 
2016-01-31 12:19:51,969  INFO EventsManagerImpl:144 adding Event-Handler: org.matsim.analysis.VolumesAnalyzer
2016-01-31 12:19:51,969  INFO EventsManagerImpl:148   org.matsim.api.core.v01.events.handler.LinkLeaveEventHandler
2016-01-31 12:19:51,969  INFO EventsManagerImpl:207     > org.matsim.api.core.v01.events.LinkLeaveEvent
2016-01-31 12:19:51,970  INFO EventsManagerImpl:148   org.matsim.api.core.v01.events.handler.PersonDepartureEventHandler
2016-01-31 12:19:51,970  INFO EventsManagerImpl:207     > org.matsim.api.core.v01.events.PersonDepartureEvent
2016-01-31 12:19:51,970  INFO EventsManagerImpl:156 
2016-01-31 12:19:51,977  INFO Injector:81 org.matsim.api.core.v01.Scenario
2016-01-31 12:19:51,977  INFO Injector:82    -> of(org.matsim.core.scenario.MutableScenario@5158b42f)
2016-01-31 12:19:51,977  INFO Injector:81 org.matsim.pt.transitSchedule.api.TransitSchedule
2016-01-31 12:19:51,978  INFO Injector:82    -> Key[type=org.matsim.core.scenario.ScenarioByInstanceModule$TransitScheduleProvider, annotation=[none]]
2016-01-31 12:19:51,978  INFO Injector:81 org.matsim.vehicles.Vehicles
2016-01-31 12:19:51,978  INFO Injector:82    -> Key[type=org.matsim.core.scenario.ScenarioByInstanceModule$TransitVehiclesProvider, annotation=[none]]
2016-01-31 12:19:51,978  INFO Injector:81 org.matsim.households.Households
2016-01-31 12:19:51,981  INFO Injector:82    -> @Provides org.matsim.core.scenario.ScenarioByInstanceModule.provideHouseholds(ScenarioByInstanceModule.java:54)
2016-01-31 12:19:51,981  INFO Injector:81 org.matsim.api.core.v01.population.PopulationFactory
2016-01-31 12:19:51,981  INFO Injector:82    -> @Provides org.matsim.core.scenario.ScenarioByInstanceModule.providePopulationFactory(ScenarioByInstanceModule.java:45)
2016-01-31 12:19:51,982  INFO Injector:81 org.matsim.api.core.v01.population.Population
2016-01-31 12:19:51,982  INFO Injector:82    -> @Provides org.matsim.core.scenario.ScenarioByInstanceModule.providePopulation(ScenarioByInstanceModule.java:41)
2016-01-31 12:19:51,982  INFO Injector:81 org.matsim.facilities.ActivityFacilities
2016-01-31 12:19:51,982  INFO Injector:82    -> @Provides org.matsim.core.scenario.ScenarioByInstanceModule.provideActivityFacilities(ScenarioByInstanceModule.java:49)
2016-01-31 12:19:51,982  INFO Injector:81 org.matsim.lanes.data.v20.Lanes
2016-01-31 12:19:51,982  INFO Injector:82    -> @Provides org.matsim.core.scenario.ScenarioByInstanceModule.provideLanes(ScenarioByInstanceModule.java:64)
2016-01-31 12:19:51,982  INFO Injector:81 org.matsim.vehicles.Vehicles
2016-01-31 12:19:51,982  INFO Injector:82    -> @Provides org.matsim.core.scenario.ScenarioByInstanceModule.provideVehicles(ScenarioByInstanceModule.java:59)
2016-01-31 12:19:51,982  INFO Injector:81 org.matsim.api.core.v01.network.Network
2016-01-31 12:19:51,982  INFO Injector:82    -> @Provides org.matsim.core.scenario.ScenarioByInstanceModule.provideNetwork(ScenarioByInstanceModule.java:37)
2016-01-31 12:19:51,982  INFO Injector:81 org.matsim.core.controler.corelisteners.PlansScoring
2016-01-31 12:19:51,983  INFO Injector:82    -> FactoryProxy{key=Key[type=org.matsim.core.controler.corelisteners.PlansScoring, annotation=[none]], provider=com.google.inject.internal.ConstructorBindingImpl$Factory@6adbc9d[Scopes.SINGLETON]}
2016-01-31 12:19:51,984  INFO Injector:81 org.matsim.core.controler.corelisteners.PlansReplanning
2016-01-31 12:19:51,984  INFO Injector:82    -> FactoryProxy{key=Key[type=org.matsim.core.controler.corelisteners.PlansReplanning, annotation=[none]], provider=com.google.inject.internal.ConstructorBindingImpl$Factory@223191a6[Scopes.SINGLETON]}
2016-01-31 12:19:51,984  INFO Injector:81 org.matsim.core.controler.corelisteners.PlansDumping
2016-01-31 12:19:51,984  INFO Injector:82    -> FactoryProxy{key=Key[type=org.matsim.core.controler.corelisteners.PlansDumping, annotation=[none]], provider=com.google.inject.internal.ConstructorBindingImpl$Factory@6069db50[Scopes.SINGLETON]}
2016-01-31 12:19:51,984  INFO Injector:81 org.matsim.core.controler.corelisteners.EventsHandling
2016-01-31 12:19:51,984  INFO Injector:82    -> FactoryProxy{key=Key[type=org.matsim.core.controler.corelisteners.EventsHandling, annotation=[none]], provider=com.google.inject.internal.ConstructorBindingImpl$Factory@59662a0b[Scopes.SINGLETON]}
2016-01-31 12:19:51,984  INFO Injector:81 org.matsim.core.controler.corelisteners.DumpDataAtEnd
2016-01-31 12:19:51,985  INFO Injector:82    -> FactoryProxy{key=Key[type=org.matsim.core.controler.corelisteners.DumpDataAtEnd, annotation=[none]], provider=com.google.inject.internal.ConstructorBindingImpl$Factory@1a482e36[Scopes.SINGLETON]}
2016-01-31 12:19:51,985  INFO Injector:81 org.matsim.core.api.experimental.events.EventsManager
2016-01-31 12:19:51,985  INFO Injector:82    -> FactoryProxy{key=Key[type=org.matsim.core.api.experimental.events.EventsManager, annotation=[none]], provider=com.google.inject.internal.ConstructorBindingImpl$Factory@2f9f7dcf}[Scopes.SINGLETON]
2016-01-31 12:19:51,985  INFO Injector:81 org.matsim.core.mobsim.framework.Mobsim
2016-01-31 12:19:51,985  INFO Injector:82    -> Key[type=org.matsim.core.mobsim.qsim.QSimProvider, annotation=[none]]
2016-01-31 12:19:51,985  INFO Injector:81 org.matsim.core.trafficmonitoring.TravelTimeCalculator
2016-01-31 12:19:51,985  INFO Injector:82    -> Key[type=org.matsim.core.trafficmonitoring.TravelTimeCalculatorModule$TravelTimeCalculatorProvider, annotation=[none]][Scopes.SINGLETON]
2016-01-31 12:19:51,986  INFO Injector:81 org.matsim.core.router.util.TravelTime
2016-01-31 12:19:51,986  INFO Injector:82    -> Key[type=org.matsim.core.trafficmonitoring.TravelTimeCalculatorModule$FromTravelTimeCalculator, annotation=[none]]
2016-01-31 12:19:51,986  INFO Injector:81 org.matsim.core.router.costcalculators.TravelDisutilityFactory
2016-01-31 12:19:51,986  INFO Injector:82    -> of(org.matsim.core.router.costcalculators.RandomizingTimeDistanceTravelDisutility$Builder@42a48628)
2016-01-31 12:19:51,986  INFO Injector:81 org.matsim.core.scoring.ScoringFunctionFactory
2016-01-31 12:19:51,986  INFO Injector:82    -> FactoryProxy{key=Key[type=org.matsim.core.scoring.ScoringFunctionFactory, annotation=[none]], provider=com.google.inject.internal.ConstructorBindingImpl$Factory@1283bb96}
2016-01-31 12:19:51,986  INFO Injector:81 org.matsim.core.scoring.functions.CharyparNagelScoringParametersForPerson
2016-01-31 12:19:51,986  INFO Injector:82    -> FactoryProxy{key=Key[type=org.matsim.core.scoring.functions.CharyparNagelScoringParametersForPerson, annotation=[none]], provider=com.google.inject.internal.ConstructorBindingImpl$Factory@3c19aaa5}
2016-01-31 12:19:51,986  INFO Injector:81 org.matsim.core.router.util.LeastCostPathCalculatorFactory
2016-01-31 12:19:51,986  INFO Injector:82    -> FactoryProxy{key=Key[type=org.matsim.core.router.util.LeastCostPathCalculatorFactory, annotation=[none]], provider=com.google.inject.internal.ConstructorBindingImpl$Factory@38d8f54a[Scopes.SINGLETON]}
2016-01-31 12:19:51,987  INFO Injector:81 org.matsim.pt.router.TransitRouter
2016-01-31 12:19:51,987  INFO Injector:82    -> Key[type=org.matsim.pt.router.TransitRouterImplFactory, annotation=[none]]
2016-01-31 12:19:51,987  INFO Injector:81 org.matsim.core.router.RoutingModule
2016-01-31 12:19:51,987  INFO Injector:82    -> org.matsim.core.router.TripRouterFactoryModule$PseudoTransitRoutingModuleProvider@5223e5ee
2016-01-31 12:19:51,987  INFO Injector:81 org.matsim.core.router.RoutingModule
2016-01-31 12:19:51,987  INFO Injector:82    -> org.matsim.core.router.TripRouterFactoryModule$TeleportationRoutingModuleProvider@bef2d72
2016-01-31 12:19:51,987  INFO Injector:81 org.matsim.core.router.RoutingModule
2016-01-31 12:19:51,987  INFO Injector:82    -> org.matsim.core.router.TripRouterFactoryModule$TeleportationRoutingModuleProvider@69b2283a
2016-01-31 12:19:51,987  INFO Injector:81 org.matsim.core.router.RoutingModule
2016-01-31 12:19:51,987  INFO Injector:82    -> org.matsim.core.router.TripRouterFactoryModule$TeleportationRoutingModuleProvider@22a637e7
2016-01-31 12:19:51,987  INFO Injector:81 org.matsim.core.router.RoutingModule
2016-01-31 12:19:51,987  INFO Injector:82    -> org.matsim.core.router.TripRouterFactoryModule$NetworkRoutingModuleProvider@6fe7aac8
2016-01-31 12:19:51,987  INFO Injector:81 org.matsim.core.router.RoutingModule
2016-01-31 12:19:51,988  INFO Injector:82    -> Key[type=org.matsim.core.router.TripRouterFactoryModule$TransitRoutingModuleProvider, annotation=[none]]
2016-01-31 12:19:51,988  INFO Injector:81 org.matsim.core.router.RoutingModule
2016-01-31 12:19:51,988  INFO Injector:82    -> FactoryProxy{key=Key[type=org.matsim.core.router.RoutingModule, annotation=@com.google.inject.name.Named(value=transit_walk)], provider=org.matsim.core.router.TripRouterFactoryModule$TeleportationRoutingModuleProvider@69b2283a}
2016-01-31 12:19:51,988  INFO Injector:81 org.matsim.core.router.MainModeIdentifier
2016-01-31 12:19:51,988  INFO Injector:82    -> FactoryProxy{key=Key[type=org.matsim.core.router.MainModeIdentifier, annotation=[none]], provider=com.google.inject.internal.ConstructorBindingImpl$Factory@2a4fb17b}
2016-01-31 12:19:51,988  INFO Injector:81 org.matsim.core.router.TripRouter
2016-01-31 12:19:51,988  INFO Injector:82    -> Key[type=org.matsim.core.router.TripRouterModule$RealTripRouterProvider, annotation=[none]]
2016-01-31 12:19:51,988  INFO Injector:81 org.matsim.core.replanning.selectors.GenericPlanSelector<org.matsim.api.core.v01.population.Plan, org.matsim.api.core.v01.population.Person>
2016-01-31 12:19:51,988  INFO Injector:82    -> FactoryProxy{key=Key[type=org.matsim.core.replanning.selectors.GenericPlanSelector<org.matsim.api.core.v01.population.Plan, org.matsim.api.core.v01.population.Person>, annotation=[none]], provider=com.google.inject.internal.ConstructorBindingImpl$Factory@7cc0cdad}
2016-01-31 12:19:51,988  INFO Injector:81 org.matsim.core.replanning.PlanStrategy
2016-01-31 12:19:51,989  INFO Injector:82    -> Key[type=org.matsim.core.replanning.modules.KeepLastSelectedPlanStrategyFactory, annotation=[none]]
2016-01-31 12:19:51,989  INFO Injector:81 org.matsim.core.replanning.PlanStrategy
2016-01-31 12:19:51,989  INFO Injector:82    -> Key[type=org.matsim.core.replanning.modules.SelectBestPlanStrategyFactory, annotation=[none]]
2016-01-31 12:19:51,989  INFO Injector:81 org.matsim.core.replanning.PlanStrategy
2016-01-31 12:19:51,989  INFO Injector:82    -> Key[type=org.matsim.core.replanning.modules.SelectExpBetaPlanStrategyFactory, annotation=[none]]
2016-01-31 12:19:51,989  INFO Injector:81 org.matsim.core.replanning.PlanStrategy
2016-01-31 12:19:51,989  INFO Injector:82    -> Key[type=org.matsim.core.replanning.modules.ChangeExpBetaPlanStrategyFactory, annotation=[none]]
2016-01-31 12:19:51,989  INFO Injector:81 org.matsim.core.replanning.PlanStrategy
2016-01-31 12:19:51,989  INFO Injector:82    -> Key[type=org.matsim.core.replanning.modules.SelectRandomStrategyFactory, annotation=[none]]
2016-01-31 12:19:51,989  INFO Injector:81 org.matsim.core.replanning.PlanStrategy
2016-01-31 12:19:51,989  INFO Injector:82    -> Key[type=org.matsim.core.replanning.modules.SelectPathSizeLogitStrategyFactory, annotation=[none]]
2016-01-31 12:19:51,989  INFO Injector:81 org.matsim.core.replanning.PlanStrategy
2016-01-31 12:19:51,989  INFO Injector:82    -> Key[type=org.matsim.core.replanning.modules.ReRoutePlanStrategyFactory, annotation=[none]]
2016-01-31 12:19:51,990  INFO Injector:81 org.matsim.core.replanning.PlanStrategy
2016-01-31 12:19:51,990  INFO Injector:82    -> Key[type=org.matsim.core.replanning.modules.TimeAllocationMutatorPlanStrategyFactory, annotation=[none]]
2016-01-31 12:19:51,990  INFO Injector:81 org.matsim.core.replanning.PlanStrategy
2016-01-31 12:19:51,990  INFO Injector:82    -> Key[type=org.matsim.core.replanning.modules.TimeAllocationMutatorReRoutePlanStrategyFactory, annotation=[none]]
2016-01-31 12:19:51,990  INFO Injector:81 org.matsim.core.replanning.PlanStrategy
2016-01-31 12:19:51,990  INFO Injector:82    -> Key[type=org.matsim.core.replanning.modules.ChangeSingleLegModeStrategyFactory, annotation=[none]]
2016-01-31 12:19:51,990  INFO Injector:81 org.matsim.core.replanning.PlanStrategy
2016-01-31 12:19:51,990  INFO Injector:82    -> Key[type=org.matsim.core.replanning.modules.ChangeLegModeStrategyFactory, annotation=[none]]
2016-01-31 12:19:51,990  INFO Injector:81 org.matsim.core.replanning.PlanStrategy
2016-01-31 12:19:51,990  INFO Injector:82    -> Key[type=org.matsim.core.replanning.modules.SubtourModeChoiceStrategyFactory, annotation=[none]]
2016-01-31 12:19:51,990  INFO Injector:81 org.matsim.core.replanning.PlanStrategy
2016-01-31 12:19:51,990  INFO Injector:82    -> Key[type=org.matsim.core.replanning.modules.ChangeTripModeStrategyFactory, annotation=[none]]
2016-01-31 12:19:51,991  INFO Injector:81 org.matsim.core.replanning.PlanStrategy
2016-01-31 12:19:51,991  INFO Injector:82    -> Key[type=org.matsim.core.replanning.modules.ChangeSingleTripModeStrategyFactory, annotation=[none]]
2016-01-31 12:19:51,991  INFO Injector:81 org.matsim.core.replanning.PlanStrategy
2016-01-31 12:19:51,991  INFO Injector:82    -> Key[type=org.matsim.core.replanning.modules.TripSubtourModeChoiceStrategyFactory, annotation=[none]]
2016-01-31 12:19:51,991  INFO Injector:81 org.matsim.core.replanning.ReplanningContext
2016-01-31 12:19:51,991  INFO Injector:82    -> FactoryProxy{key=Key[type=org.matsim.core.replanning.ReplanningContext, annotation=[none]], provider=com.google.inject.internal.ConstructorBindingImpl$Factory@33d512c1}
2016-01-31 12:19:51,991  INFO Injector:81 org.matsim.core.controler.listener.ControlerListener
2016-01-31 12:19:51,991  INFO Injector:82    -> FactoryProxy{key=Key[type=org.matsim.core.controler.listener.ControlerListener, annotation=@com.google.inject.multibindings.Element(setName=,uniqueId=143, type=MULTIBINDER, keyType=)], provider=com.google.inject.internal.ConstructorBindingImpl$Factory@5fe94a96[Scopes.SINGLETON]}
2016-01-31 12:19:51,991  INFO Injector:81 org.matsim.core.controler.listener.ControlerListener
2016-01-31 12:19:51,991  INFO Injector:82    -> FactoryProxy{key=Key[type=org.matsim.core.controler.listener.ControlerListener, annotation=@com.google.inject.multibindings.Element(setName=,uniqueId=144, type=MULTIBINDER, keyType=)], provider=com.google.inject.internal.ConstructorBindingImpl$Factory@74235045}
2016-01-31 12:19:51,991  INFO Injector:81 org.matsim.core.controler.listener.ControlerListener
2016-01-31 12:19:51,992  INFO Injector:82    -> FactoryProxy{key=Key[type=org.matsim.core.controler.listener.ControlerListener, annotation=@com.google.inject.multibindings.Element(setName=,uniqueId=145, type=MULTIBINDER, keyType=)], provider=com.google.inject.internal.ConstructorBindingImpl$Factory@30c15d8b}
2016-01-31 12:19:51,992  INFO Injector:81 org.matsim.core.controler.listener.ControlerListener
2016-01-31 12:19:51,992  INFO Injector:82    -> FactoryProxy{key=Key[type=org.matsim.core.controler.listener.ControlerListener, annotation=@com.google.inject.multibindings.Element(setName=,uniqueId=146, type=MULTIBINDER, keyType=)], provider=com.google.inject.internal.ConstructorBindingImpl$Factory@51399530}
2016-01-31 12:19:51,992  INFO Injector:81 org.matsim.core.controler.listener.ControlerListener
2016-01-31 12:19:51,992  INFO Injector:82    -> FactoryProxy{key=Key[type=org.matsim.core.controler.listener.ControlerListener, annotation=@com.google.inject.multibindings.Element(setName=,uniqueId=147, type=MULTIBINDER, keyType=)], provider=com.google.inject.internal.ConstructorBindingImpl$Factory@2b71e916[Scopes.SINGLETON]}
2016-01-31 12:19:51,992  INFO Injector:81 org.matsim.analysis.ScoreStats
2016-01-31 12:19:51,992  INFO Injector:82    -> FactoryProxy{key=Key[type=org.matsim.analysis.ScoreStats, annotation=[none]], provider=com.google.inject.internal.ConstructorBindingImpl$Factory@2b71e916[Scopes.SINGLETON]}
2016-01-31 12:19:51,992  INFO Injector:81 org.matsim.core.controler.listener.ControlerListener
2016-01-31 12:19:51,992  INFO Injector:82    -> FactoryProxy{key=Key[type=org.matsim.core.controler.listener.ControlerListener, annotation=@com.google.inject.multibindings.Element(setName=,uniqueId=148, type=MULTIBINDER, keyType=)], provider=com.google.inject.internal.ConstructorBindingImpl$Factory@62379589}
2016-01-31 12:19:51,993  INFO Injector:81 org.matsim.counts.Counts<org.matsim.api.core.v01.network.Link>
2016-01-31 12:19:51,994  INFO Injector:82    -> @Provides org.matsim.counts.CountsModule.provideLinkCounts(CountsModule.java:59)[Scopes.SINGLETON]
2016-01-31 12:19:51,994  INFO Injector:81 org.matsim.core.controler.listener.ControlerListener
2016-01-31 12:19:51,994  INFO Injector:82    -> FactoryProxy{key=Key[type=org.matsim.core.controler.listener.ControlerListener, annotation=@com.google.inject.multibindings.Element(setName=,uniqueId=149, type=MULTIBINDER, keyType=)], provider=com.google.inject.internal.ConstructorBindingImpl$Factory@1d296da}
2016-01-31 12:19:51,994  INFO Injector:81 org.matsim.core.controler.OutputDirectoryHierarchy
2016-01-31 12:19:51,994  INFO Injector:82    -> of(org.matsim.core.controler.OutputDirectoryHierarchy@557caf28)
2016-01-31 12:19:51,994  INFO Injector:81 org.matsim.analysis.IterationStopWatch
2016-01-31 12:19:51,994  INFO Injector:82    -> of(org.matsim.analysis.IterationStopWatch@3c46e67a)
2016-01-31 12:19:51,994  INFO Injector:81 org.matsim.core.controler.ControlerI
2016-01-31 12:19:51,994  INFO Injector:82    -> of(org.matsim.core.controler.Controler$2$1@292b08d6)
2016-01-31 12:19:51,994  INFO Injector:81 org.matsim.core.router.RoutingModule
2016-01-31 12:19:51,994  INFO Injector:82    -> FactoryProxy{key=Key[type=org.matsim.core.router.RoutingModule, annotation=@com.google.inject.multibindings.Element(setName=,uniqueId=150, type=MAPBINDER, keyType=java.lang.String)], provider=Key[type=org.matsim.core.router.TripRouterFactoryModule$TransitRoutingModuleProvider, annotation=[none]]}
2016-01-31 12:19:51,995  INFO Injector:81 org.matsim.core.router.RoutingModule
2016-01-31 12:19:51,995  INFO Injector:82    -> FactoryProxy{key=Key[type=org.matsim.core.router.RoutingModule, annotation=@com.google.inject.multibindings.Element(setName=,uniqueId=152, type=MAPBINDER, keyType=java.lang.String)], provider=org.matsim.core.router.TripRouterFactoryModule$NetworkRoutingModuleProvider@6fe7aac8}
2016-01-31 12:19:51,995  INFO Injector:81 org.matsim.core.router.RoutingModule
2016-01-31 12:19:51,995  INFO Injector:82    -> FactoryProxy{key=Key[type=org.matsim.core.router.RoutingModule, annotation=@com.google.inject.multibindings.Element(setName=,uniqueId=154, type=MAPBINDER, keyType=java.lang.String)], provider=FactoryProxy{key=Key[type=org.matsim.core.router.RoutingModule, annotation=@com.google.inject.name.Named(value=transit_walk)], provider=org.matsim.core.router.TripRouterFactoryModule$TeleportationRoutingModuleProvider@69b2283a}}
2016-01-31 12:19:51,995  INFO Injector:81 org.matsim.core.router.RoutingModule
2016-01-31 12:19:51,995  INFO Injector:82    -> FactoryProxy{key=Key[type=org.matsim.core.router.RoutingModule, annotation=@com.google.inject.multibindings.Element(setName=,uniqueId=156, type=MAPBINDER, keyType=java.lang.String)], provider=org.matsim.core.router.TripRouterFactoryModule$PseudoTransitRoutingModuleProvider@5223e5ee}
2016-01-31 12:19:51,996  INFO Injector:81 org.matsim.core.router.RoutingModule
2016-01-31 12:19:51,996  INFO Injector:82    -> FactoryProxy{key=Key[type=org.matsim.core.router.RoutingModule, annotation=@com.google.inject.multibindings.Element(setName=,uniqueId=158, type=MAPBINDER, keyType=java.lang.String)], provider=org.matsim.core.router.TripRouterFactoryModule$TeleportationRoutingModuleProvider@69b2283a}
2016-01-31 12:19:51,996  INFO Injector:81 org.matsim.core.router.RoutingModule
2016-01-31 12:19:51,996  INFO Injector:82    -> FactoryProxy{key=Key[type=org.matsim.core.router.RoutingModule, annotation=@com.google.inject.multibindings.Element(setName=,uniqueId=160, type=MAPBINDER, keyType=java.lang.String)], provider=org.matsim.core.router.TripRouterFactoryModule$TeleportationRoutingModuleProvider@bef2d72}
2016-01-31 12:19:51,996  INFO Injector:81 org.matsim.core.router.RoutingModule
2016-01-31 12:19:51,996  INFO Injector:82    -> FactoryProxy{key=Key[type=org.matsim.core.router.RoutingModule, annotation=@com.google.inject.multibindings.Element(setName=,uniqueId=162, type=MAPBINDER, keyType=java.lang.String)], provider=org.matsim.core.router.TripRouterFactoryModule$TeleportationRoutingModuleProvider@22a637e7}
2016-01-31 12:19:51,997  INFO Injector:81 org.matsim.core.router.util.TravelTime
2016-01-31 12:19:51,997  INFO Injector:82    -> FactoryProxy{key=Key[type=org.matsim.core.router.util.TravelTime, annotation=@com.google.inject.multibindings.Element(setName=,uniqueId=164, type=MAPBINDER, keyType=java.lang.String)], provider=Key[type=org.matsim.core.trafficmonitoring.TravelTimeCalculatorModule$FromTravelTimeCalculator, annotation=[none]]}
2016-01-31 12:19:51,997  INFO Injector:81 org.matsim.core.router.costcalculators.TravelDisutilityFactory
2016-01-31 12:19:51,997  INFO Injector:82    -> FactoryProxy{key=Key[type=org.matsim.core.router.costcalculators.TravelDisutilityFactory, annotation=@com.google.inject.multibindings.Element(setName=,uniqueId=166, type=MAPBINDER, keyType=java.lang.String)], provider=ConstantFactory{value=org.matsim.core.router.costcalculators.RandomizingTimeDistanceTravelDisutility$Builder@42a48628}[Scopes.SINGLETON]}
2016-01-31 12:19:51,997  INFO Injector:81 org.matsim.core.scoring.EventsToScore
2016-01-31 12:19:51,997  INFO Injector:82    -> com.google.inject.internal.ConstructorBindingImpl$Factory@3b69e7d1
2016-01-31 12:19:51,998  INFO Injector:81 org.matsim.core.router.SingleModeNetworksCache
2016-01-31 12:19:51,998  INFO Injector:82    -> com.google.inject.internal.ConstructorBindingImpl$Factory@1573f9fc[Scopes.SINGLETON]
2016-01-31 12:19:51,998  INFO Injector:81 org.matsim.core.replanning.StrategyManager
2016-01-31 12:19:51,998  INFO Injector:82    -> com.google.inject.internal.ConstructorBindingImpl$Factory@7e6f74c[Scopes.SINGLETON]
2016-01-31 12:19:51,998  INFO Injector:81 org.matsim.analysis.CalcLinkStats
2016-01-31 12:19:51,998  INFO Injector:82    -> com.google.inject.internal.ConstructorBindingImpl$Factory@2f4948e4[Scopes.SINGLETON]
2016-01-31 12:19:51,998  INFO Injector:81 org.matsim.analysis.LinkStatsControlerListener
2016-01-31 12:19:51,998  INFO Injector:82    -> com.google.inject.internal.ConstructorBindingImpl$Factory@5fe94a96[Scopes.SINGLETON]
2016-01-31 12:19:51,999  INFO Injector:81 org.matsim.analysis.VolumesAnalyzer
2016-01-31 12:19:51,999  INFO Injector:82    -> com.google.inject.internal.ConstructorBindingImpl$Factory@6989da5e[Scopes.SINGLETON]
2016-01-31 12:19:51,999  INFO Injector:81 org.matsim.analysis.LegHistogram
2016-01-31 12:19:51,999  INFO Injector:82    -> com.google.inject.internal.ConstructorBindingImpl$Factory@682b2fa
2016-01-31 12:19:51,999  INFO Injector:81 org.matsim.analysis.CalcLegTimes
2016-01-31 12:19:51,999  INFO Injector:82    -> com.google.inject.internal.ConstructorBindingImpl$Factory@229f66ed[Scopes.SINGLETON]
2016-01-31 12:19:51,999  INFO Injector:81 org.matsim.analysis.TravelDistanceStats
2016-01-31 12:19:52,000  INFO Injector:82    -> com.google.inject.internal.ConstructorBindingImpl$Factory@6743e411[Scopes.SINGLETON]
2016-01-31 12:19:52,000  INFO Injector:81 org.matsim.analysis.ScoreStatsControlerListener
2016-01-31 12:19:52,000  INFO Injector:82    -> com.google.inject.internal.ConstructorBindingImpl$Factory@2b71e916[Scopes.SINGLETON]
2016-01-31 12:19:52,000  INFO Injector:81 org.matsim.counts.CountsModule$CountsInitializer
2016-01-31 12:19:52,000  INFO Injector:82    -> com.google.inject.internal.ConstructorBindingImpl$Factory@233795b6[Scopes.SINGLETON]
2016-01-31 12:19:52,017  INFO StrategyManager:67 global innovation switch off after iteration: 2147483647
2016-01-31 12:19:52,019  INFO GenericStrategyManager:315 added change request:  iteration=-2147483648 newWeight=0.0 strategy=RandomPlanSelector_ReRoute
2016-01-31 12:19:52,019  INFO GenericStrategyManager:315 added change request:  iteration=-2147483648 newWeight=0.0 strategy=RandomPlanSelector_TimeAllocationMutator
2016-01-31 12:19:52,020  INFO GenericStrategyManager:347 setting PlanSelectorForRemoval to class org.matsim.core.replanning.selectors.WorstPlanForRemovalSelector
2016-01-31 12:19:52,151  INFO EventsManagerImpl:144 adding Event-Handler: org.matsim.core.scoring.EventsToScore
2016-01-31 12:19:52,151  INFO EventsManagerImpl:148   org.matsim.core.events.handler.BasicEventHandler
2016-01-31 12:19:52,151  INFO EventsManagerImpl:207     > org.matsim.api.core.v01.events.Event
2016-01-31 12:19:52,151  INFO EventsManagerImpl:156 
2016-01-31 12:19:52,152  INFO EventsManagerImpl:144 adding Event-Handler: org.matsim.core.scoring.EventsToScore
2016-01-31 12:19:52,152  INFO EventsManagerImpl:148   org.matsim.core.events.handler.BasicEventHandler
2016-01-31 12:19:52,152  INFO EventsManagerImpl:207     > org.matsim.api.core.v01.events.Event
2016-01-31 12:19:52,152  INFO EventsManagerImpl:156 
2016-01-31 12:19:52,153  INFO EventsManagerImpl:144 adding Event-Handler: org.matsim.analysis.LegHistogram
2016-01-31 12:19:52,153  INFO EventsManagerImpl:148   org.matsim.api.core.v01.events.handler.PersonDepartureEventHandler
2016-01-31 12:19:52,153  INFO EventsManagerImpl:207     > org.matsim.api.core.v01.events.PersonDepartureEvent
2016-01-31 12:19:52,153  INFO EventsManagerImpl:148   org.matsim.api.core.v01.events.handler.PersonArrivalEventHandler
2016-01-31 12:19:52,153  INFO EventsManagerImpl:207     > org.matsim.api.core.v01.events.PersonArrivalEvent
2016-01-31 12:19:52,154  INFO EventsManagerImpl:148   org.matsim.api.core.v01.events.handler.PersonStuckEventHandler
2016-01-31 12:19:52,154  INFO EventsManagerImpl:207     > org.matsim.api.core.v01.events.PersonStuckEvent
2016-01-31 12:19:52,154  INFO EventsManagerImpl:156 
2016-01-31 12:19:52,154  INFO EventsManagerImpl:144 adding Event-Handler: org.matsim.analysis.LegHistogram
2016-01-31 12:19:52,154  INFO EventsManagerImpl:148   org.matsim.api.core.v01.events.handler.PersonDepartureEventHandler
2016-01-31 12:19:52,155  INFO EventsManagerImpl:207     > org.matsim.api.core.v01.events.PersonDepartureEvent
2016-01-31 12:19:52,155  INFO EventsManagerImpl:148   org.matsim.api.core.v01.events.handler.PersonArrivalEventHandler
2016-01-31 12:19:52,155  INFO EventsManagerImpl:207     > org.matsim.api.core.v01.events.PersonArrivalEvent
2016-01-31 12:19:52,155  INFO EventsManagerImpl:148   org.matsim.api.core.v01.events.handler.PersonStuckEventHandler
2016-01-31 12:19:52,155  INFO EventsManagerImpl:207     > org.matsim.api.core.v01.events.PersonStuckEvent
2016-01-31 12:19:52,155  INFO EventsManagerImpl:156 
2016-01-31 12:19:52,156  INFO EventsManagerImpl:144 adding Event-Handler: org.matsim.analysis.CalcLegTimes
2016-01-31 12:19:52,156  INFO EventsManagerImpl:148   org.matsim.api.core.v01.events.handler.PersonDepartureEventHandler
2016-01-31 12:19:52,156  INFO EventsManagerImpl:207     > org.matsim.api.core.v01.events.PersonDepartureEvent
2016-01-31 12:19:52,156  INFO EventsManagerImpl:148   org.matsim.api.core.v01.events.handler.PersonArrivalEventHandler
2016-01-31 12:19:52,156  INFO EventsManagerImpl:207     > org.matsim.api.core.v01.events.PersonArrivalEvent
2016-01-31 12:19:52,157  INFO EventsManagerImpl:148   org.matsim.api.core.v01.events.handler.ActivityEndEventHandler
2016-01-31 12:19:52,157  INFO EventsManagerImpl:207     > org.matsim.api.core.v01.events.ActivityEndEvent
2016-01-31 12:19:52,157  INFO EventsManagerImpl:148   org.matsim.api.core.v01.events.handler.ActivityStartEventHandler
2016-01-31 12:19:52,157  INFO EventsManagerImpl:207     > org.matsim.api.core.v01.events.ActivityStartEvent
2016-01-31 12:19:52,157  INFO EventsManagerImpl:156 
2016-01-31 12:19:52,157  INFO EventsManagerImpl:144 adding Event-Handler: org.matsim.analysis.CalcLegTimes
2016-01-31 12:19:52,157  INFO EventsManagerImpl:148   org.matsim.api.core.v01.events.handler.PersonDepartureEventHandler
2016-01-31 12:19:52,158  INFO EventsManagerImpl:207     > org.matsim.api.core.v01.events.PersonDepartureEvent
2016-01-31 12:19:52,158  INFO EventsManagerImpl:148   org.matsim.api.core.v01.events.handler.PersonArrivalEventHandler
2016-01-31 12:19:52,158  INFO EventsManagerImpl:207     > org.matsim.api.core.v01.events.PersonArrivalEvent
2016-01-31 12:19:52,158  INFO EventsManagerImpl:148   org.matsim.api.core.v01.events.handler.ActivityEndEventHandler
2016-01-31 12:19:52,158  INFO EventsManagerImpl:207     > org.matsim.api.core.v01.events.ActivityEndEvent
2016-01-31 12:19:52,158  INFO EventsManagerImpl:148   org.matsim.api.core.v01.events.handler.ActivityStartEventHandler
2016-01-31 12:19:52,158  INFO EventsManagerImpl:207     > org.matsim.api.core.v01.events.ActivityStartEvent
2016-01-31 12:19:52,159  INFO EventsManagerImpl:156 
2016-01-31 12:19:52,900  INFO EventsManagerImpl:144 adding Event-Handler: org.matsim.core.scoring.EventsToScore
2016-01-31 12:19:52,900  INFO EventsManagerImpl:148   org.matsim.core.events.handler.BasicEventHandler
2016-01-31 12:19:52,900  INFO EventsManagerImpl:207     > org.matsim.api.core.v01.events.Event
2016-01-31 12:19:52,900  INFO EventsManagerImpl:156 
2016-01-31 12:19:52,900  INFO EventsManagerImpl:144 adding Event-Handler: org.matsim.core.scoring.EventsToScore
2016-01-31 12:19:52,901  INFO EventsManagerImpl:148   org.matsim.core.events.handler.BasicEventHandler
2016-01-31 12:19:52,901  INFO EventsManagerImpl:207     > org.matsim.api.core.v01.events.Event
2016-01-31 12:19:52,901  INFO EventsManagerImpl:156 
2016-01-31 12:19:52,904  INFO ControlerListenerManager:108 calling notifyStartup on org.matsim.counts.CountsControlerListener
2016-01-31 12:19:52,904  INFO ControlerListenerManager:108 calling notifyStartup on org.matsim.analysis.ScoreStatsControlerListener
2016-01-31 12:19:52,905  INFO ControlerListenerManager:111 all ControlerStartupListeners called.
2016-01-31 12:19:52,906  INFO ControlerUtils:57 config dump before iterations start
2016-01-31 12:19:52,916  INFO ControlerUtils:61 

<?xml version="1.0" encoding="UTF-8"?>
<!DOCTYPE config SYSTEM "http://www.matsim.org/files/dtd/config_v2.dtd">
<config>

<!-- ====================================================================== -->

	<module name="TimeAllocationMutator" >
		<param name="mutationAffectsDuration" value="true" />

		<!-- Default:1800.0; Defines how many seconds a time mutation can maximally shift a time. -->
		<param name="mutationRange" value="7200.0" />
	</module>

<!-- ====================================================================== -->

	<module name="changeLegMode" >
		<param name="ignoreCarAvailability" value="true" />
		<param name="modes" value="car,pt" />
	</module>

<!-- ====================================================================== -->

	<module name="controler" >

		<!-- Sets whether graphs showing some analyses should automatically be generated during the simulation. The generation of graphs usually takes a small amount of time that does not have any weight in big simulations, but add a significant overhead in smaller runs or in test cases where the graphical output is not even requested. -->
		<param name="createGraphs" value="true" />

		<!-- true if at the end of a run, plans, network, config etc should be dumped to a file -->
		<param name="dumpDataAtEnd" value="true" />

		<!-- Default=false;  -->
		<param name="enableLinkToLinkRouting" value="false" />

		<!-- Default=xml; Specifies the file format for writing events. Currently supported: txt, xml.
		Multiple values can be specified separated by commas (','). -->
		<param name="eventsFileFormat" value="xml" />

		<!-- Default=0;  -->
		<param name="firstIteration" value="0" />

		<!-- Default=1000;  -->
		<param name="lastIteration" value="20" />

		<!-- Defines which mobility simulation will be used. Currently supported: qsim JDEQSim 
		Depending on the chosen mobsim, you'll have to add additional config modules to configure the corresponding mobsim.
		For 'qsim', add a module 'qsim' to the config. -->
		<param name="mobsim" value="qsim" />

		<param name="outputDirectory" value="./output" />

		<!-- Possible values: failIfDirectoryExists, overwriteExistingFiles, deleteDirectoryIfExists -->
		<param name="overwriteFiles" value="failIfDirectoryExists" />

		<!-- The type of routing (least cost path) algorithm used, may have the values: Dijkstra, FastDijkstra, AStarLandmarks or FastAStarLandmarks -->
		<param name="routingAlgorithmType" value="Dijkstra" />

		<!-- An identifier for the current run which is used as prefix for output files and mentioned in output xml files etc. -->
		<param name="runId" value="null" />

		<!-- Comma-separated list of visualizer output file formats. `transims', `googleearth', and `otfvis'. -->
		<param name="snapshotFormat" value="" />

		<!-- iterationNumber % writeEventsInterval == 0 defines in which iterations events are written to a file. `0' disables events writing completely. -->
		<param name="writeEventsInterval" value="10" />

		<!-- iterationNumber % writePlansInterval == 0 defines (hopefully) in which iterations plans are written to a file. `0' disables plans writing completely.  Some plans in early iterations are always written -->
		<param name="writePlansInterval" value="1" />

		<!-- iterationNumber % writeSnapshotsInterval == 0 defines in which iterations snapshots are written to a file. `0' disables snapshots writing completely -->
		<param name="writeSnapshotsInterval" value="1" />
	</module>

<!-- ====================================================================== -->

	<module name="counts" >

		<!-- Transport modes that will be respected for the counts comparison. 'car' is default, which includes also bussed from the pt simulation module. Use this parameter in combination with 'filterModes' = true! -->
		<param name="analyzedModes" value="car" />

		<!-- Specifies over how many iterations the link volumes should be averaged that are used for the counts comparison. Use 1 or 0 to only use the link volumes of a single iteration. This values cannot be larger than the value specified for writeCountsInterval -->
		<param name="averageCountsOverIterations" value="5" />

		<!-- factor by which to re-scale the simulated values.  necessary when simulation runs with something different from 100%.  needs to be adapted manually -->
		<param name="countsScaleFactor" value="1.0" />

		<!-- distance to distanceFilterCenterNode to include counting stations. The unit of distance is the Euclidean distance implied by the coordinate system -->
		<param name="distanceFilter" value="null" />

		<!-- node id for center node of distance filter -->
		<param name="distanceFilterCenterNode" value="null" />

		<!-- If true, link counts from legs performed on modes not included in the 'analyzedModes' parameter are ignored. -->
		<param name="filterModes" value="false" />

		<!-- input file name to counts package -->
		<param name="inputCountsFile" value="null" />

		<!-- possible values: `html', `kml', `txt', `all' -->
		<param name="outputformat" value="txt" />

		<!-- Specifies how often the counts comparison should be calculated and written. -->
		<param name="writeCountsInterval" value="10" />
	</module>

<!-- ====================================================================== -->

	<module name="facilities" >
		<param name="inputFacilitiesFile" value="null" />
		<param name="inputFacilityAttributesFile" value="null" />
	</module>

<!-- ====================================================================== -->

	<module name="global" >
		<param name="coordinateSystem" value="EPSG:3115" />

		<!-- "global" number of threads.  This number is used, e.g., for replanning, but NOT in the mobsim.  This can typically be set to as many cores as you have available, or possibly even slightly more. -->
		<param name="numberOfThreads" value="8" />

		<param name="randomSeed" value="5399998864266990000" />
	</module>

<!-- ====================================================================== -->

	<module name="households" >
		<param name="inputFile" value="null" />
		<param name="inputHouseholdAttributesFile" value="null" />
	</module>

<!-- ====================================================================== -->

	<module name="linkStats" >

		<!-- Specifies over how many iterations the link volumes should be averaged that are used for the link statistics. Use 1 or 0 to only use the link volumes of a single iteration. This values cannot be larger than the value specified for writeLinkStatsInterval -->
		<param name="averageLinkStatsOverIterations" value="1" />

		<!-- Specifies how often the link stats should be calculated and written. Use 0 to disable the generation of link stats. -->
		<param name="writeLinkStatsInterval" value="1" />
	</module>

<!-- ====================================================================== -->

	<module name="network" >
		<param name="inputChangeEventsFile" value="null" />
		<param name="inputNetworkFile" value="./input/specialNetwork.xml" />
		<param name="laneDefinitionsFile" value="null" />
		<param name="timeVariantNetwork" value="false" />
	</module>

<!-- ====================================================================== -->

	<module name="parallelEventHandling" >

		<!-- Estimated number of events during mobsim run. An optional optimization hint for the framework. -->
		<param name="estimatedNumberOfEvents" value="null" />

		<!-- Number of threads for parallel events handler. 0 or null means the framework decides by itself. -->
		<param name="numberOfThreads" value="null" />

		<!-- If enabled, each event handler is assigned to its own thread. Note that enabling this feature disabled the numberOfThreads option! This feature is still experimental! -->
		<param name="oneThreadPerHandler" value="false" />

		<!-- If enabled, it is ensured that all events that are created during a time step of the mobility simulation are processed before the next time step is simulated. E.g. neccessary when within-day replanning is used. -->
		<param name="synchronizeOnSimSteps" value="true" />
	</module>

<!-- ====================================================================== -->

	<module name="planCalcScore" >

		<!-- logit model scale parameter. default: 1.  Has name and default value for historical reasons (see Bryan Raney's phd thesis). -->
		<param name="BrainExpBeta" value="2.0" />

		<param name="PathSizeLogitBeta" value="1.0" />

		<!-- fraction of iterations at which MSA score averaging is started. The matsim theory department suggests to use this together with switching off choice set innovation (where a similar switch exists), but it has not been tested yet. -->
		<param name="fractionOfIterationsToStartScoreMSA" value="null" />

		<!-- new_score = (1-learningRate)*old_score + learningRate * score_from_mobsim.  learning rates close to zero emulate score averaging, but slow down initial convergence -->
		<param name="learningRate" value="1.0" />

		<!-- There used to be a plateau between duration=0 and duration=zeroUtilityDuration. This caused durations to evolve to zero once they were below zeroUtilityDuration, causing problems.  Only use this switch if you need to be backwards compatible with some old results.  (changed nov'13) -->
		<param name="usingOldScoringBelowZeroUtilityDuration" value="false" />

		<!-- write a plans file in each iteration directory which contains what each agent actually did, and the score it received. -->
		<param name="writeExperiencedPlans" value="false" />

		<parameterset type="scoringParameters" >
			<param name="earlyDeparture" value="0.0" />
			<param name="lateArrival" value="0.0" />
			<param name="marginalUtilityOfMoney" value="1.0" />
			<param name="performing" value="6.0" />
			<param name="subpopulation" value="null" />
			<param name="utilityOfLineSwitch" value="-1.0" />
			<param name="waiting" value="0.0" />
			<param name="waitingPt" value="-6.0" />

			<parameterset type="activityParams" >
				<param name="activityType" value="h" />
				<param name="closingTime" value="undefined" />
				<param name="earliestEndTime" value="undefined" />
				<param name="latestStartTime" value="undefined" />
				<param name="minimalDuration" value="undefined" />
				<param name="openingTime" value="undefined" />
				<param name="priority" value="1.0" />
				<param name="scoringThisActivityAtAll" value="true" />
				<param name="typicalDuration" value="12:00:00" />

				<!-- method to compute score at typical duration.  Use uniform for backwards compatibility (all activities same score; higher proba to drop long acts). -->
				<param name="typicalDurationScoreComputation" value="uniform" />
			</parameterset>

			<parameterset type="activityParams" >
				<param name="activityType" value="w" />
				<param name="closingTime" value="undefined" />
				<param name="earliestEndTime" value="undefined" />
				<param name="latestStartTime" value="undefined" />
				<param name="minimalDuration" value="undefined" />
				<param name="openingTime" value="undefined" />
				<param name="priority" value="1.0" />
				<param name="scoringThisActivityAtAll" value="true" />
				<param name="typicalDuration" value="08:00:00" />

				<!-- method to compute score at typical duration.  Use uniform for backwards compatibility (all activities same score; higher proba to drop long acts). -->
				<param name="typicalDurationScoreComputation" value="uniform" />
			</parameterset>

			<parameterset type="activityParams" >
				<param name="activityType" value="pt interaction" />
				<param name="closingTime" value="00:00:00" />
				<param name="earliestEndTime" value="undefined" />
				<param name="latestStartTime" value="undefined" />
				<param name="minimalDuration" value="undefined" />
				<param name="openingTime" value="00:00:00" />
				<param name="priority" value="1.0" />
				<param name="scoringThisActivityAtAll" value="true" />
				<param name="typicalDuration" value="00:02:00" />

				<!-- method to compute score at typical duration.  Use uniform for backwards compatibility (all activities same score; higher proba to drop long acts). -->
				<param name="typicalDurationScoreComputation" value="uniform" />
			</parameterset>

			<parameterset type="modeParams" >

				<!-- [utils] alternative-specific constant.  no guarantee that this is used anywhere. default=0 to be backwards compatible for the time being -->
				<param name="constant" value="0.0" />

				<!-- [utils/m] utility of walking per m, normally negative.  this is on top of the time (dis)utility. -->
				<param name="marginalUtilityOfDistance_util_m" value="0.0" />

				<!-- [utils/hr] additional marginal utility of traveling.  normally negative.  this comes on top of the opportunity cost of time -->
				<param name="marginalUtilityOfTraveling_util_hr" value="0.0" />

				<param name="mode" value="car" />
				<param name="monetaryDistanceRate" value="0.0" />
			</parameterset>

			<parameterset type="modeParams" >

				<!-- [utils] alternative-specific constant.  no guarantee that this is used anywhere. default=0 to be backwards compatible for the time being -->
				<param name="constant" value="0.0" />

				<!-- [utils/m] utility of walking per m, normally negative.  this is on top of the time (dis)utility. -->
				<param name="marginalUtilityOfDistance_util_m" value="0.0" />

				<!-- [utils/hr] additional marginal utility of traveling.  normally negative.  this comes on top of the opportunity cost of time -->
				<param name="marginalUtilityOfTraveling_util_hr" value="-6.0" />

				<param name="mode" value="pt" />
				<param name="monetaryDistanceRate" value="0.0" />
			</parameterset>

			<parameterset type="modeParams" >

				<!-- [utils] alternative-specific constant.  no guarantee that this is used anywhere. default=0 to be backwards compatible for the time being -->
				<param name="constant" value="0.0" />

				<!-- [utils/m] utility of walking per m, normally negative.  this is on top of the time (dis)utility. -->
				<param name="marginalUtilityOfDistance_util_m" value="0.0" />

				<!-- [utils/hr] additional marginal utility of traveling.  normally negative.  this comes on top of the opportunity cost of time -->
				<param name="marginalUtilityOfTraveling_util_hr" value="-6.0" />

				<param name="mode" value="walk" />
				<param name="monetaryDistanceRate" value="0.0" />
			</parameterset>

			<parameterset type="modeParams" >

				<!-- [utils] alternative-specific constant.  no guarantee that this is used anywhere. default=0 to be backwards compatible for the time being -->
				<param name="constant" value="0.0" />

				<!-- [utils/m] utility of walking per m, normally negative.  this is on top of the time (dis)utility. -->
				<param name="marginalUtilityOfDistance_util_m" value="0.0" />

				<!-- [utils/hr] additional marginal utility of traveling.  normally negative.  this comes on top of the opportunity cost of time -->
				<param name="marginalUtilityOfTraveling_util_hr" value="-6.0" />

				<param name="mode" value="bike" />
				<param name="monetaryDistanceRate" value="0.0" />
			</parameterset>

			<parameterset type="modeParams" >

				<!-- [utils] alternative-specific constant.  no guarantee that this is used anywhere. default=0 to be backwards compatible for the time being -->
				<param name="constant" value="0.0" />

				<!-- [utils/m] utility of walking per m, normally negative.  this is on top of the time (dis)utility. -->
				<param name="marginalUtilityOfDistance_util_m" value="0.0" />

				<!-- [utils/hr] additional marginal utility of traveling.  normally negative.  this comes on top of the opportunity cost of time -->
				<param name="marginalUtilityOfTraveling_util_hr" value="-6.0" />

				<param name="mode" value="other" />
				<param name="monetaryDistanceRate" value="0.0" />
			</parameterset>
		</parameterset>
	</module>

<!-- ====================================================================== -->

	<module name="plans" >

		<!-- String: minOfDurationAndEndTime tryEndTimeThenDuration endTimeOnly. Anything besides minOfDurationAndEndTime will internally use a different (simpler) version of the TimeAllocationMutator. -->
		<param name="activityDurationInterpretation" value="tryEndTimeThenDuration" />

		<!-- Path to a file containing person attributes (required file format: ObjectAttributes). -->
		<param name="inputPersonAttributesFile" value="null" />

		<param name="inputPlansFile" value="./input/plans_sitm_cali_01.04.2014_troncal.xml" />

		<!-- Defines how routes are stored in memory. Currently supported: LinkNetworkRoute, CompressedNetworkRoute. -->
		<param name="networkRouteType" value="LinkNetworkRoute" />

		<!-- (not tested) will remove plan attributes that are presumably not used, such as activityStartTime. default=false -->
		<param name="removingUnnecessaryPlanAttributes" value="false" />

		<!-- Name of the (Object)Attribute defining the subpopulation to which pertains a Person (as freight, through traffic, etc.). The attribute must be of String type. -->
		<param name="subpopulationAttributeName" value="subpopulation" />
	</module>

<!-- ====================================================================== -->

	<module name="planscalcroute" >

		<!-- All the modes for which the router is supposed to generate network routes (like car) -->
		<param name="networkModes" value="car" />

		<parameterset type="teleportedModeParameters" >
			<param name="beelineDistanceFactor" value="1.3" />
			<param name="mode" value="bike" />

			<!-- Free-speed factor for a teleported mode. Travel time = teleportedModeFreespeedFactor * <freespeed car travel time>. Insert a line like this for every such mode. Please do not set teleportedModeFreespeedFactor as well as teleportedModeSpeed for the same mode, but if you do, +teleportedModeFreespeedFactor wins over teleportedModeSpeed. -->
			<param name="teleportedModeFreespeedFactor" value="null" />

			<!-- Speed for a teleported mode. Travel time = (<beeline distance> * beelineDistanceFactor) / teleportedModeSpeed. Insert a line like this for every such mode. -->
			<param name="teleportedModeSpeed" value="4.166666666666667" />
		</parameterset>

		<parameterset type="teleportedModeParameters" >
			<param name="beelineDistanceFactor" value="1.3" />
			<param name="mode" value="walk" />

			<!-- Free-speed factor for a teleported mode. Travel time = teleportedModeFreespeedFactor * <freespeed car travel time>. Insert a line like this for every such mode. Please do not set teleportedModeFreespeedFactor as well as teleportedModeSpeed for the same mode, but if you do, +teleportedModeFreespeedFactor wins over teleportedModeSpeed. -->
			<param name="teleportedModeFreespeedFactor" value="null" />

			<!-- Speed for a teleported mode. Travel time = (<beeline distance> * beelineDistanceFactor) / teleportedModeSpeed. Insert a line like this for every such mode. -->
			<param name="teleportedModeSpeed" value="0.8333333333333333" />
		</parameterset>

		<parameterset type="teleportedModeParameters" >
			<param name="beelineDistanceFactor" value="1.3" />
			<param name="mode" value="undefined" />

			<!-- Free-speed factor for a teleported mode. Travel time = teleportedModeFreespeedFactor * <freespeed car travel time>. Insert a line like this for every such mode. Please do not set teleportedModeFreespeedFactor as well as teleportedModeSpeed for the same mode, but if you do, +teleportedModeFreespeedFactor wins over teleportedModeSpeed. -->
			<param name="teleportedModeFreespeedFactor" value="null" />

			<!-- Speed for a teleported mode. Travel time = (<beeline distance> * beelineDistanceFactor) / teleportedModeSpeed. Insert a line like this for every such mode. -->
			<param name="teleportedModeSpeed" value="13.88888888888889" />
		</parameterset>

		<parameterset type="teleportedModeParameters" >
			<param name="beelineDistanceFactor" value="1.3" />
			<param name="mode" value="ride" />

			<!-- Free-speed factor for a teleported mode. Travel time = teleportedModeFreespeedFactor * <freespeed car travel time>. Insert a line like this for every such mode. Please do not set teleportedModeFreespeedFactor as well as teleportedModeSpeed for the same mode, but if you do, +teleportedModeFreespeedFactor wins over teleportedModeSpeed. -->
			<param name="teleportedModeFreespeedFactor" value="1.0" />

			<!-- Speed for a teleported mode. Travel time = (<beeline distance> * beelineDistanceFactor) / teleportedModeSpeed. Insert a line like this for every such mode. -->
			<param name="teleportedModeSpeed" value="null" />
		</parameterset>

		<parameterset type="teleportedModeParameters" >
			<param name="beelineDistanceFactor" value="1.3" />
			<param name="mode" value="pt" />

			<!-- Free-speed factor for a teleported mode. Travel time = teleportedModeFreespeedFactor * <freespeed car travel time>. Insert a line like this for every such mode. Please do not set teleportedModeFreespeedFactor as well as teleportedModeSpeed for the same mode, but if you do, +teleportedModeFreespeedFactor wins over teleportedModeSpeed. -->
			<param name="teleportedModeFreespeedFactor" value="2.0" />

			<!-- Speed for a teleported mode. Travel time = (<beeline distance> * beelineDistanceFactor) / teleportedModeSpeed. Insert a line like this for every such mode. -->
			<param name="teleportedModeSpeed" value="null" />
		</parameterset>
	</module>

<!-- ====================================================================== -->

	<module name="ptCounts" >

		<!-- factor by which to re-scale the simulated values.  necessary when simulation runs with something different from 100%.  needs to be adapted manually -->
		<param name="countsScaleFactor" value="1.0" />

		<!-- distance to distanceFilterCenterNode to include counting stations. The unit of distance is the Euclidean distance implied by the coordinate system -->
		<param name="distanceFilter" value="null" />

		<!-- node id for center node of distance filter -->
		<param name="distanceFilterCenterNode" value="null" />

		<!-- input file containing the alighting (getting off) counts for pt -->
		<param name="inputAlightCountsFile" value="null" />

		<!-- input file containing the boarding (getting on) counts for pt -->
		<param name="inputBoardCountsFile" value="null" />

		<!-- input file containing the occupancy counts for pt -->
		<param name="inputOccupancyCountsFile" value="null" />

		<!-- possible values: `html', `kml', `txt', `all' -->
		<param name="outputformat" value="null" />

		<!-- every how many iterations (starting with 0) counts comparisons are generated -->
		<param name="ptCountsInterval" value="10" />
	</module>

<!-- ====================================================================== -->

	<module name="qsim" >
		<param name="endTime" value="28:00:00" />
		<param name="flowCapacityFactor" value="1.0" />

		<!-- decides if waiting vehicles enter the network after or before the already driving vehicles were moved. Default: false -->
		<param name="insertingWaitingVehiclesBeforeDrivingVehicles" value="false" />

		<!-- If link dynamics is set as SeepageQ, set to false if all seep modes should perform seepage. Default is true (better option). -->
		<param name="isRestrictingSeepage" value="true" />

		<!-- If link dynamics is set as SeepageQ, set to true if seep mode do not consumes any space on the link. Default is false. -->
		<param name="isSeepModeStorageFree" value="false" />

		<!-- default: FIFO; options: FIFO PassingQ SeepageQ -->
		<param name="linkDynamics" value="PassingQ" />

		<!-- The (initial) width of the links of the network. Use positive floating point values. -->
		<param name="linkWidth" value="30.0" />

		<!-- [comma-separated list] Defines which modes are congested modes. Technically, these are the modes that the departure handler of the netsimengine handles.  Effective cell size, effective lane width, flow capacity factor, and storage capacity factor need to be set with diligence.  Need to be vehicular modes to make sense. -->
		<param name="mainMode" value="car" />

		<!-- Shortens a link in the visualization, i.e. its start and end point are moved into towards the center. Does not affect traffic flow.  -->
		<param name="nodeOffset" value="0.0" />

		<!-- Number of threads used for the QSim.  Note that this setting is independent from the "global" threads setting.  In contrast to earlier versions, the non-parallel special version is no longer there. -->
		<param name="numberOfThreads" value="1" />

		<!-- Boolean. `true': stuck vehicles are removed, aborting the plan; `false': stuck vehicles are forced into the next link. `false' is probably the better choice. -->
		<param name="removeStuckVehicles" value="false" />

		<!-- If link dynamics is set as SeepageQ, set a seep mode. Default is bike. -->
		<param name="seepMode" value="bike" />

		<!-- Options: nullmaxOfStarttimeAndEarliestActivityEnd onlyUseStarttime  -->
		<param name="simStarttimeInterpretation" value="maxOfStarttimeAndEarliestActivityEnd" />

		<!-- snapshotStyle. One of: equiDist queue withHoles  -->
		<param name="snapshotStyle" value="equiDist" />

		<param name="snapshotperiod" value="00:00:00" />
		<param name="startTime" value="00:00:00" />
		<param name="storageCapacityFactor" value="1.0" />

		<!-- time in seconds.  Time after which the frontmost vehicle on a link is called `stuck' if it does not move. -->
		<param name="stuckTime" value="10.0" />

		<param name="timeStepSize" value="00:00:01" />

		<!-- options: nullqueue withHoles  -->
		<param name="trafficDynamics" value="queue" />

		<!-- [DEPRECATED, usevehiclesSource instead]  If this is true, we do not expect (or use) vehicles from the vehicles database, but create vehicles on the fly with default properties. -->
		<param name="useDefaultVehicles" value="true" />

		<!-- Set this parameter to true if lanes should be used, false if not. -->
		<param name="useLanes" value="false" />

		<!-- If a route does not reference a vehicle, agents will use the vehicle with the same id as their own. -->
		<param name="usePersonIdForMissingVehicleId" value="true" />

		<!-- normally, the qsim accumulates fractional flows up to one flow unit.  This is impractical with  with smaller PCEs.  If this switch is set to true, cars can enter a link if the accumulated flow is >=0, and the accumulated flow can go into negative.  Will probably become the default eventually. -->
		<param name="usingFastCapacityUpdate" value="false" />

		<!-- if the qsim should use as many runners as there are threads (Christoph's dissertation version) or more of them, together with a thread pool (seems to be faster in some situations, but is not tested). -->
		<param name="usingThreadpool" value="true" />

		<!-- Defines what happens if an agent wants to depart, but the specified vehicle is not available. One of: nullteleport wait exception  -->
		<param name="vehicleBehavior" value="wait" />

		<!-- If vehicles should all be the same default vehicle, or come from the vehicles file, or something else.  Possible values:  defaultVehicle fromVehiclesData -->
		<param name="vehiclesSource" value="defaultVehicle" />
	</module>

<!-- ====================================================================== -->

	<module name="scenario" >
	</module>

<!-- ====================================================================== -->

	<module name="strategy" >

		<!-- the external executable will be called with a config file as argument.  This is the pathname to a possible skeleton config, to which additional information will be added.  Can be null. -->
		<param name="ExternalExeConfigTemplate" value="null" />

		<!-- time out value (in seconds) after which matsim will consider the external strategy as failed -->
		<param name="ExternalExeTimeOut" value="3600" />

		<!-- root directory for temporary files generated by the external executable. Provided as a service; I don't think this is used by MATSim. -->
		<param name="ExternalExeTmpFileRootDir" value="null" />

		<!-- fraction of iterations where innovative strategies are switched off.  Something link 0.8 should be good.  E.g. if you run from iteration 400 to iteration 500, innovation is switched off at iteration 480 -->
		<param name="fractionOfIterationsToDisableInnovation" value="Infinity" />

		<!-- maximum number of plans per agent.  ``0'' means ``infinity''.  Currently (2010), ``5'' is a good number -->
		<param name="maxAgentPlanMemorySize" value="5" />

		<!-- name of PlanSelector for plans removal.  Possible defaults: WorstPlanSelector SelectRandom SelectExpBetaForRemoval ChangeExpBetaForRemoval PathSizeLogitSelectorForRemoval . The current default, WorstPlanSelector is not a good choice from a discrete choice theoretical perspective. Alternatives, however, have not been systematically tested. kai, feb'12 -->
		<param name="planSelectorForRemoval" value="WorstPlanSelector" />

		<parameterset type="strategysettings" >

			<!-- iteration after which strategy will be disabled.  most useful for ``innovative'' strategies (new routes, new times, ...). Normally, better use fractionOfIterationsToDisableInnovation -->
			<param name="disableAfterIteration" value="-1" />

			<!-- path to external executable (if applicable) -->
			<param name="executionPath" value="null" />

			<!-- name of strategy.  Possible default names: KeepLastSelected BestScore ChangeExpBeta SelectExpBeta SelectRandom SelectPathSizeLogit  (selectors), ReRoute TimeAllocationMutator ChangeLegMode TimeAllocationMutator_ReRoute ChangeSingleLegMode ChangeSingleTripMode SubtourModeChoice ChangeTripMode TripSubtourModeChoice  (innovative strategies). -->
			<param name="strategyName" value="ChangeExpBeta" />

			<!-- subpopulation to which the strategy applies. "null" refers to the default population, that is, the set of persons for which no explicit subpopulation is defined (ie no subpopulation attribute) -->
			<param name="subpopulation" value="null" />

			<!-- weight of a strategy: for each agent, a strategy will be selected with a probability proportional to its weight -->
			<param name="weight" value="0.8" />
		</parameterset>

		<parameterset type="strategysettings" >

			<!-- iteration after which strategy will be disabled.  most useful for ``innovative'' strategies (new routes, new times, ...). Normally, better use fractionOfIterationsToDisableInnovation -->
			<param name="disableAfterIteration" value="-1" />

			<!-- path to external executable (if applicable) -->
			<param name="executionPath" value="null" />

			<!-- name of strategy.  Possible default names: KeepLastSelected BestScore ChangeExpBeta SelectExpBeta SelectRandom SelectPathSizeLogit  (selectors), ReRoute TimeAllocationMutator ChangeLegMode TimeAllocationMutator_ReRoute ChangeSingleLegMode ChangeSingleTripMode SubtourModeChoice ChangeTripMode TripSubtourModeChoice  (innovative strategies). -->
			<param name="strategyName" value="ReRoute" />

			<!-- subpopulation to which the strategy applies. "null" refers to the default population, that is, the set of persons for which no explicit subpopulation is defined (ie no subpopulation attribute) -->
			<param name="subpopulation" value="null" />

			<!-- weight of a strategy: for each agent, a strategy will be selected with a probability proportional to its weight -->
			<param name="weight" value="0.1" />
		</parameterset>

		<parameterset type="strategysettings" >

			<!-- iteration after which strategy will be disabled.  most useful for ``innovative'' strategies (new routes, new times, ...). Normally, better use fractionOfIterationsToDisableInnovation -->
			<param name="disableAfterIteration" value="-1" />

			<!-- path to external executable (if applicable) -->
			<param name="executionPath" value="null" />

			<!-- name of strategy.  Possible default names: KeepLastSelected BestScore ChangeExpBeta SelectExpBeta SelectRandom SelectPathSizeLogit  (selectors), ReRoute TimeAllocationMutator ChangeLegMode TimeAllocationMutator_ReRoute ChangeSingleLegMode ChangeSingleTripMode SubtourModeChoice ChangeTripMode TripSubtourModeChoice  (innovative strategies). -->
			<param name="strategyName" value="TimeAllocationMutator" />

			<!-- subpopulation to which the strategy applies. "null" refers to the default population, that is, the set of persons for which no explicit subpopulation is defined (ie no subpopulation attribute) -->
			<param name="subpopulation" value="null" />

			<!-- weight of a strategy: for each agent, a strategy will be selected with a probability proportional to its weight -->
			<param name="weight" value="0.1" />
		</parameterset>
	</module>

<!-- ====================================================================== -->

	<module name="subtourModeChoice" >

		<!-- Defines the chain-based modes, seperated by commas -->
		<param name="chainBasedModes" value="car,bike" />

		<!-- Defines whether car availability must be considered or not. A agent has no car only if it has no license, or never access to a car -->
		<param name="considerCarAvailability" value="false" />

		<!-- Defines all the modes available, including chain-based modes, seperated by commas -->
		<param name="modes" value="car,pt,bike,walk" />
	</module>

<!-- ====================================================================== -->

	<module name="transit" >

		<!-- Optional input file containing additional attributes for transit lines, stored as ObjectAttributes. -->
		<param name="transitLinesAttributesFile" value="null" />

		<!-- Comma-separated list of transportation modes that are handled as transit. Defaults to 'pt'. -->
		<param name="transitModes" value="pt" />

		<!-- Input file containing the transit schedule to be simulated. -->
		<param name="transitScheduleFile" value="./input/transitSchedule.xml" />

		<!-- Optional input file containing additional attributes for transit stop facilities, stored as ObjectAttributes. -->
		<param name="transitStopsAttributesFile" value="null" />

		<!-- Set this parameter to true if transit should be simulated, false if not. -->
		<param name="useTransit" value="true" />

		<!-- Input file containing the vehicles used by the departures in the transit schedule. -->
		<param name="vehiclesFile" value="./input/transitVehicles.xml" />
	</module>

<!-- ====================================================================== -->

	<module name="transitRouter" >

		<!-- additional time the router allocates when a line switch happens. Can be interpreted as a 'safety' time that agents need to safely transfer from one line to another -->
		<param name="additionalTransferTime" value="0.0" />

		<!-- step size to increase searchRadius if no stops are found -->
		<param name="extensionRadius" value="200.0" />

		<!-- maximum beeline distance between stops that agents could transfer to by walking -->
		<param name="maxBeelineWalkConnectionDistance" value="100.0" />

		<!-- the radius in which stop locations are searched, given a start or target coordinate -->
		<param name="searchRadius" value="500.0" />
	</module>

<!-- ====================================================================== -->

	<module name="travelTimeCalculator" >

		<!-- Transport modes that will be respected by the travel time collector. 'car' is default, which includes also bussed from the pt simulation module. Use this parameter in combination with 'filterModes' = true! -->
		<param name="analyzedModes" value="car" />

		<param name="calculateLinkToLinkTravelTimes" value="false" />
		<param name="calculateLinkTravelTimes" value="true" />

		<!-- If true, link travel times from legs performed on modes not included in the 'analyzedModes' parameter are ignored. -->
		<param name="filterModes" value="false" />

		<!-- How to deal with congested time bins that have no link entry events. `optimistic' assumes free speed (too optimistic); 'experimental_LastMile' is experimental and probably too pessimistic. -->
		<param name="travelTimeAggregator" value="optimistic" />

		<!-- The size of the time bin (in sec) into which the link travel times are aggregated for the router -->
		<param name="travelTimeBinSize" value="900" />

		<!-- possible values: nullTravelTimeCalculatorArray TravelTimeCalculatorHashMap  -->
		<param name="travelTimeCalculator" value="TravelTimeCalculatorArray" />

		<!-- How to deal with link entry times at different positions during the time bin. Currently supported: average, linearinterpolation -->
		<param name="travelTimeGetter" value="average" />
	</module>

<!-- ====================================================================== -->

	<module name="vehicles" >
		<param name="vehiclesFile" value="null" />
	</module>

<!-- ====================================================================== -->

	<module name="vspExperimental" >

		<!-- (do not use) Set this filename of MZ05 daily analysis -->
		<param name="inputMZ05File" value="" />

		<!-- (do not use except of you have to) There was a problem with pt interaction scoring.  Some people solved it by overwriting the parameters of the pt interaction activity type.  Doing this now throws an Exception.  If you still insist on doing this, set the following to true. -->
		<param name="isAbleToOverwritePtInteractionParams" value="false" />

		<param name="isGeneratingBoardingDeniedEvent" value="false" />

		<!-- if an approximation of the opportunity cost of time is included into the radius calculation for location choice.`true' will be faster, but it is an approximation.  Default is `true'; `false' is available for backwards compatibility. -->
		<param name="isUsingOpportunityCostOfTimeForLocationChoice" value="true" />

		<param name="logitScaleParamForPlansRemoval" value="1.0" />

		<!-- Options: | ignore | info | warn | abort | .  When violating VSP defaults, this results in nothing, logfile infos, logfile warnings, or aborts.  Members of VSP should use `abort' or talk to kai. -->
		<param name="vspDefaultsCheckingLevel" value="ignore" />

		<!-- if true then writes output_events in output directory.  default is `false'. Will only work when lastIteration is multiple of events writing interval -->
		<param name="writingOutputEvents" value="false" />
	</module>

<!-- ====================================================================== -->

</config>

2016-01-31 12:19:52,917  INFO ControlerUtils:62 Complete config dump done.
2016-01-31 12:19:52,917  INFO ControlerUtils:63 Checking consistency of config...
2016-01-31 12:19:52,918  INFO VspConfigConsistencyCheckerImpl:56 NOT running vsp config consistency check because vsp defaults checking level is set to IGNORE
2016-01-31 12:19:52,918  INFO ControlerUtils:65 Checking consistency of config done.
[...]
2016-01-31 12:25:21,014  INFO MobsimListenerManager:49 calling addQueueSimulationListener
2016-01-31 12:25:21,014  INFO MobsimListenerManager:53   assigned class org.matsim.core.mobsim.framework.listeners.MobsimListener to interface org.matsim.vis.snapshotwriters.SnapshotWriterManager
2016-01-31 12:25:21,014  INFO MobsimListenerManager:53   assigned class org.matsim.core.mobsim.framework.listeners.MobsimListener to interface org.matsim.core.mobsim.framework.listeners.MobsimInitializedListener
2016-01-31 12:25:21,014  INFO MobsimListenerManager:53   assigned class org.matsim.core.mobsim.framework.listeners.MobsimListener to interface org.matsim.core.mobsim.framework.listeners.MobsimBeforeCleanupListener
2016-01-31 12:25:21,014  INFO MobsimListenerManager:53   assigned class org.matsim.core.mobsim.framework.listeners.MobsimListener to interface org.matsim.core.mobsim.framework.listeners.MobsimAfterSimStepListener
2016-01-31 12:25:21,014  INFO MobsimListenerManager:53   assigned class org.matsim.core.mobsim.framework.listeners.MobsimListener to interface org.matsim.core.mobsim.framework.listeners.MobsimListener
2016-01-31 12:25:21,014  INFO ReconstructingUmlaufBuilder:112 Generating UmlaufStuecke
2016-01-31 12:25:21,273  INFO QNetsimEngine:562 Assigned 2018 nodes and 2659 links to QSimEngineRunner #0
2016-01-31 12:25:21,303  INFO QNetsimEngine:388 SIMULATION (QNetsimEngine) AT 00:04:57 : #links=0 #nodes=0
2016-01-31 12:25:21,303  INFO QSim:462 SIMULATION (NEW QSim) AT 00:04:57 : #Veh=59564 lost=0 simT=0.0s realT=0s; (s/r): 0.0
2016-01-31 12:25:21,304  INFO Gbl:52 used RAM: 1359686016B = 1327818kB = 1296MB  free: 563926656B = 537MB  total: 1923612672B = 1834MB
2016-01-31 12:25:21,413  INFO QNetsimEngine:388 SIMULATION (QNetsimEngine) AT 01:00:00 : #links=0 #nodes=0
2016-01-31 12:25:21,413  INFO QSim:462 SIMULATION (NEW QSim) AT 01:00:00 : #Veh=59564 lost=0 simT=3303.0s realT=0s; (s/r): Infinity
2016-01-31 12:25:21,413  INFO Gbl:52 used RAM: 1359686016B = 1327818kB = 1296MB  free: 563926656B = 537MB  total: 1923612672B = 1834MB
2016-01-31 12:25:21,530  INFO QNetsimEngine:388 SIMULATION (QNetsimEngine) AT 02:00:00 : #links=0 #nodes=0
2016-01-31 12:25:21,530  INFO QSim:462 SIMULATION (NEW QSim) AT 02:00:00 : #Veh=59564 lost=0 simT=6903.0s realT=0s; (s/r): Infinity
2016-01-31 12:25:21,530  INFO Gbl:52 used RAM: 1359686016B = 1327818kB = 1296MB  free: 563926656B = 537MB  total: 1923612672B = 1834MB
2016-01-31 12:25:21,638  INFO QNetsimEngine:388 SIMULATION (QNetsimEngine) AT 03:00:00 : #links=0 #nodes=0
2016-01-31 12:25:21,638  INFO QSim:462 SIMULATION (NEW QSim) AT 03:00:00 : #Veh=59564 lost=0 simT=10503.0s realT=0s; (s/r): Infinity
2016-01-31 12:25:21,638  INFO Gbl:52 used RAM: 1359686016B = 1327818kB = 1296MB  free: 563926656B = 537MB  total: 1923612672B = 1834MB
2016-01-31 12:25:21,717  INFO QNetsimEngine:388 SIMULATION (QNetsimEngine) AT 04:00:00 : #links=0 #nodes=0
2016-01-31 12:25:21,717  INFO QSim:462 SIMULATION (NEW QSim) AT 04:00:00 : #Veh=59563 lost=0 simT=14103.0s realT=0s; (s/r): Infinity
2016-01-31 12:25:21,717  INFO Gbl:52 used RAM: 1367221920B = 1335177kB = 1303MB  free: 556390752B = 530MB  total: 1923612672B = 1834MB
2016-01-31 12:25:21,827  INFO QNetsimEngine:388 SIMULATION (QNetsimEngine) AT 05:00:00 : #links=3 #nodes=0
2016-01-31 12:25:21,827  INFO QSim:462 SIMULATION (NEW QSim) AT 05:00:00 : #Veh=59559 lost=0 simT=17703.0s realT=0s; (s/r): Infinity
2016-01-31 12:25:21,827  INFO Gbl:52 used RAM: 1370656096B = 1338531kB = 1307MB  free: 552956576B = 527MB  total: 1923612672B = 1834MB
2016-01-31 12:25:22,222  INFO QNetsimEngine:388 SIMULATION (QNetsimEngine) AT 06:00:00 : #links=20 #nodes=1
2016-01-31 12:25:22,222  INFO QSim:462 SIMULATION (NEW QSim) AT 06:00:00 : #Veh=59538 lost=0 simT=21303.0s realT=1s; (s/r): 21303.0
2016-01-31 12:25:22,222  INFO Gbl:52 used RAM: 1426270352B = 1392842kB = 1360MB  free: 497342320B = 474MB  total: 1923612672B = 1834MB
2016-01-31 12:25:22,982  INFO QNetsimEngine:388 SIMULATION (QNetsimEngine) AT 07:00:00 : #links=33 #nodes=1
2016-01-31 12:25:22,982  INFO QSim:462 SIMULATION (NEW QSim) AT 07:00:00 : #Veh=59462 lost=0 simT=24903.0s realT=1s; (s/r): 24903.0
2016-01-31 12:25:22,983  INFO Gbl:52 used RAM: 1242403776B = 1213284kB = 1184MB  free: 558001216B = 532MB  total: 1800404992B = 1717MB
2016-01-31 12:25:23,729  INFO QNetsimEngine:388 SIMULATION (QNetsimEngine) AT 08:00:00 : #links=34 #nodes=4
2016-01-31 12:25:23,729  INFO QSim:462 SIMULATION (NEW QSim) AT 08:00:00 : #Veh=59295 lost=0 simT=28503.0s realT=2s; (s/r): 14251.5
2016-01-31 12:25:23,729  INFO Gbl:52 used RAM: 1360041744B = 1328165kB = 1297MB  free: 440363248B = 419MB  total: 1800404992B = 1717MB
2016-01-31 12:25:24,426  INFO QNetsimEngine:388 SIMULATION (QNetsimEngine) AT 09:00:00 : #links=28 #nodes=3
2016-01-31 12:25:24,426  INFO QSim:462 SIMULATION (NEW QSim) AT 09:00:00 : #Veh=58904 lost=0 simT=32103.0s realT=3s; (s/r): 10701.0
2016-01-31 12:25:24,426  INFO Gbl:52 used RAM: 1469122376B = 1434689kB = 1401MB  free: 331282616B = 315MB  total: 1800404992B = 1717MB
2016-01-31 12:25:25,106  INFO QNetsimEngine:388 SIMULATION (QNetsimEngine) AT 10:00:00 : #links=26 #nodes=1
2016-01-31 12:25:25,106  INFO QSim:462 SIMULATION (NEW QSim) AT 10:00:00 : #Veh=58074 lost=0 simT=35703.0s realT=4s; (s/r): 8925.75
2016-01-31 12:25:25,106  INFO Gbl:52 used RAM: 1254778992B = 1225370kB = 1196MB  free: 677222288B = 645MB  total: 1932001280B = 1842MB
2016-01-31 12:25:25,693  INFO QNetsimEngine:388 SIMULATION (QNetsimEngine) AT 11:00:00 : #links=25 #nodes=5
2016-01-31 12:25:25,694  INFO QSim:462 SIMULATION (NEW QSim) AT 11:00:00 : #Veh=56693 lost=0 simT=39303.0s realT=4s; (s/r): 9825.75
2016-01-31 12:25:25,694  INFO Gbl:52 used RAM: 1343425648B = 1311939kB = 1281MB  free: 588575632B = 561MB  total: 1932001280B = 1842MB
2016-01-31 12:25:26,296  INFO QNetsimEngine:388 SIMULATION (QNetsimEngine) AT 12:00:00 : #links=24 #nodes=3
2016-01-31 12:25:26,296  INFO QSim:462 SIMULATION (NEW QSim) AT 12:00:00 : #Veh=54671 lost=0 simT=42903.0s realT=5s; (s/r): 8580.6
2016-01-31 12:25:26,296  INFO Gbl:52 used RAM: 1439131008B = 1405401kB = 1372MB  free: 492870272B = 470MB  total: 1932001280B = 1842MB
2016-01-31 12:25:26,930  INFO QNetsimEngine:388 SIMULATION (QNetsimEngine) AT 13:00:00 : #links=26 #nodes=2
2016-01-31 12:25:26,931  INFO QSim:462 SIMULATION (NEW QSim) AT 13:00:00 : #Veh=51956 lost=0 simT=46503.0s realT=5s; (s/r): 9300.6
2016-01-31 12:25:26,931  INFO Gbl:52 used RAM: 1540815488B = 1504702kB = 1469MB  free: 391185792B = 373MB  total: 1932001280B = 1842MB
2016-01-31 12:25:27,635  INFO QNetsimEngine:388 SIMULATION (QNetsimEngine) AT 14:00:00 : #links=20 #nodes=2
2016-01-31 12:25:27,635  INFO QSim:462 SIMULATION (NEW QSim) AT 14:00:00 : #Veh=49249 lost=0 simT=50103.0s realT=6s; (s/r): 8350.5
2016-01-31 12:25:27,636  INFO Gbl:52 used RAM: 1306276224B = 1275660kB = 1245MB  free: 616812160B = 588MB  total: 1923088384B = 1834MB
2016-01-31 12:25:28,263  INFO QNetsimEngine:388 SIMULATION (QNetsimEngine) AT 15:00:00 : #links=23 #nodes=2
2016-01-31 12:25:28,264  INFO QSim:462 SIMULATION (NEW QSim) AT 15:00:00 : #Veh=46245 lost=0 simT=53703.0s realT=7s; (s/r): 7671.857142857143
2016-01-31 12:25:28,264  INFO Gbl:52 used RAM: 1408172976B = 1375168kB = 1342MB  free: 514915408B = 491MB  total: 1923088384B = 1834MB
2016-01-31 12:25:28,878  INFO QNetsimEngine:388 SIMULATION (QNetsimEngine) AT 16:00:00 : #links=23 #nodes=0
2016-01-31 12:25:28,879  INFO QSim:462 SIMULATION (NEW QSim) AT 16:00:00 : #Veh=42667 lost=0 simT=57303.0s realT=7s; (s/r): 8186.142857142857
2016-01-31 12:25:28,879  INFO Gbl:52 used RAM: 1505424440B = 1470141kB = 1435MB  free: 417663944B = 398MB  total: 1923088384B = 1834MB
2016-01-31 12:25:29,588  INFO QNetsimEngine:388 SIMULATION (QNetsimEngine) AT 17:00:00 : #links=25 #nodes=1
2016-01-31 12:25:29,588  INFO QSim:462 SIMULATION (NEW QSim) AT 17:00:00 : #Veh=37448 lost=0 simT=60903.0s realT=8s; (s/r): 7612.875
2016-01-31 12:25:29,588  INFO Gbl:52 used RAM: 1617467360B = 1579557kB = 1542MB  free: 305621024B = 291MB  total: 1923088384B = 1834MB
2016-01-31 12:25:30,545  INFO QNetsimEngine:388 SIMULATION (QNetsimEngine) AT 18:00:00 : #links=27 #nodes=2
2016-01-31 12:25:30,546  INFO QSim:462 SIMULATION (NEW QSim) AT 18:00:00 : #Veh=29831 lost=0 simT=64503.0s realT=9s; (s/r): 7167.0
2016-01-31 12:25:30,546  INFO Gbl:52 used RAM: 1436986920B = 1403307kB = 1370MB  free: 507072984B = 483MB  total: 1944059904B = 1854MB
2016-01-31 12:25:31,382  INFO QNetsimEngine:388 SIMULATION (QNetsimEngine) AT 19:00:00 : #links=32 #nodes=4
2016-01-31 12:25:31,382  INFO QSim:462 SIMULATION (NEW QSim) AT 19:00:00 : #Veh=21457 lost=0 simT=68103.0s realT=10s; (s/r): 6810.3
2016-01-31 12:25:31,382  INFO Gbl:52 used RAM: 1570524176B = 1533715kB = 1497MB  free: 373535728B = 356MB  total: 1944059904B = 1854MB
2016-01-31 12:25:31,976  INFO QNetsimEngine:388 SIMULATION (QNetsimEngine) AT 20:00:00 : #links=24 #nodes=4
2016-01-31 12:25:31,976  INFO QSim:462 SIMULATION (NEW QSim) AT 20:00:00 : #Veh=14581 lost=0 simT=71703.0s realT=10s; (s/r): 7170.3
2016-01-31 12:25:31,976  INFO Gbl:52 used RAM: 1659548848B = 1620653kB = 1582MB  free: 284511056B = 271MB  total: 1944059904B = 1854MB
2016-01-31 12:25:33,302  INFO QNetsimEngine:388 SIMULATION (QNetsimEngine) AT 21:00:00 : #links=25 #nodes=4
2016-01-31 12:25:33,302  INFO QSim:462 SIMULATION (NEW QSim) AT 21:00:00 : #Veh=9347 lost=0 simT=75303.0s realT=12s; (s/r): 6275.25
2016-01-31 12:25:33,302  INFO Gbl:52 used RAM: 765091224B = 747159kB = 729MB  free: 1185260136B = 1130MB  total: 1950351360B = 1860MB
2016-01-31 12:25:33,695  INFO QNetsimEngine:388 SIMULATION (QNetsimEngine) AT 22:00:00 : #links=17 #nodes=1
2016-01-31 12:25:33,696  INFO QSim:462 SIMULATION (NEW QSim) AT 22:00:00 : #Veh=4384 lost=0 simT=78903.0s realT=12s; (s/r): 6575.25
2016-01-31 12:25:33,696  INFO Gbl:52 used RAM: 825854648B = 806498kB = 787MB  free: 1124496712B = 1072MB  total: 1950351360B = 1860MB
2016-01-31 12:25:33,969  INFO QNetsimEngine:388 SIMULATION (QNetsimEngine) AT 23:00:00 : #links=15 #nodes=3
2016-01-31 12:25:33,969  INFO QSim:462 SIMULATION (NEW QSim) AT 23:00:00 : #Veh=1093 lost=0 simT=82503.0s realT=12s; (s/r): 6875.25
2016-01-31 12:25:33,969  INFO Gbl:52 used RAM: 862260848B = 842051kB = 822MB  free: 1088090512B = 1037MB  total: 1950351360B = 1860MB
2016-01-31 12:25:34,072  INFO QNetsimEngine:388 SIMULATION (QNetsimEngine) AT 24:00:00 : #links=0 #nodes=0
2016-01-31 12:25:34,072  INFO QSim:462 SIMULATION (NEW QSim) AT 24:00:00 : #Veh=390 lost=0 simT=86103.0s realT=13s; (s/r): 6623.307692307692
2016-01-31 12:25:34,072  INFO Gbl:52 used RAM: 870858400B = 850447kB = 830MB  free: 1079492960B = 1029MB  total: 1950351360B = 1860MB
2016-01-31 12:25:34,149  INFO QNetsimEngine:388 SIMULATION (QNetsimEngine) AT 25:00:00 : #links=0 #nodes=0
2016-01-31 12:25:34,149  INFO QSim:462 SIMULATION (NEW QSim) AT 25:00:00 : #Veh=251 lost=0 simT=89703.0s realT=13s; (s/r): 6900.2307692307695
2016-01-31 12:25:34,149  INFO Gbl:52 used RAM: 872584088B = 852132kB = 832MB  free: 1077767272B = 1027MB  total: 1950351360B = 1860MB
2016-01-31 12:25:34,223  INFO QNetsimEngine:388 SIMULATION (QNetsimEngine) AT 26:00:00 : #links=0 #nodes=0
2016-01-31 12:25:34,223  INFO QSim:462 SIMULATION (NEW QSim) AT 26:00:00 : #Veh=215 lost=0 simT=93303.0s realT=13s; (s/r): 7177.153846153846
2016-01-31 12:25:34,223  INFO Gbl:52 used RAM: 874309768B = 853818kB = 833MB  free: 1076041592B = 1026MB  total: 1950351360B = 1860MB
2016-01-31 12:25:34,309  INFO QNetsimEngine:388 SIMULATION (QNetsimEngine) AT 27:00:00 : #links=0 #nodes=0
2016-01-31 12:25:34,309  INFO QSim:462 SIMULATION (NEW QSim) AT 27:00:00 : #Veh=190 lost=0 simT=96903.0s realT=13s; (s/r): 7454.076923076923
2016-01-31 12:25:34,309  INFO Gbl:52 used RAM: 877600584B = 857031kB = 836MB  free: 1072750776B = 1023MB  total: 1950351360B = 1860MB
2016-01-31 12:25:34,430  INFO QNetsimEngine:388 SIMULATION (QNetsimEngine) AT 28:00:00 : #links=0 #nodes=0
2016-01-31 12:25:34,431  INFO QSim:462 SIMULATION (NEW QSim) AT 28:00:00 : #Veh=175 lost=0 simT=100503.0s realT=13s; (s/r): 7731.0
2016-01-31 12:25:34,431  INFO Gbl:52 used RAM: 882907280B = 862214kB = 842MB  free: 1067444080B = 1017MB  total: 1950351360B = 1860MB
2016-01-31 12:25:34,432  INFO AbstractController$6:225 ### ITERATION 20 fires after mobsim event
2016-01-31 12:25:34,432  INFO ControlerListenerManager:244 calling notifyAfterMobsim on org.matsim.core.controler.corelisteners.EventsHandlingImpl
2016-01-31 12:25:34,433  INFO ControlerListenerManager:249 calling notifyAfterMobsim on org.matsim.analysis.LegTimesControlerListener
2016-01-31 12:25:34,433  INFO Gbl:185 Thread performance: Thread=class org.matsim.core.events.SimStepParallelEventsManagerImpl$ProcessEventsRunnable0  cpu-time=10.046875sec
2016-01-31 12:25:34,433  INFO LegTimesControlerListener:50 [20] average trip (probably: leg) duration is: 248 seconds = 00:04:08
2016-01-31 12:25:34,433  INFO ControlerListenerManager:252 [it.20] all ControlerAfterMobsimListeners called.
2016-01-31 12:25:34,433  INFO AbstractController$4:162 ### ITERATION 20 fires scoring event
2016-01-31 12:25:34,434  INFO ControlerListenerManager:184 calling notifyScoring on org.matsim.core.controler.corelisteners.PlansScoringImpl
2016-01-31 12:25:34,508  INFO EventsToScore:203 it: 20 msaStart: null
2016-01-31 12:25:34,534  INFO ControlerListenerManager:195 [it.20] all ControlerScoringListeners called.
2016-01-31 12:25:34,534  INFO AbstractController$5:170 ### ITERATION 20 fires iteration end event
2016-01-31 12:25:34,534  INFO ControlerListenerManager:161 calling notifyIterationEnds on org.matsim.core.controler.corelisteners.EventsHandlingImpl
2016-01-31 12:25:34,535  INFO EventsManagerImpl:161 removing Event-Handler: org.matsim.core.events.algorithms.EventWriterXML
2016-01-31 12:25:34,535  INFO EventsManagerImpl:161 removing Event-Handler: org.matsim.core.events.algorithms.EventWriterXML
2016-01-31 12:25:34,535  INFO ControlerListenerManager:161 calling notifyIterationEnds on org.matsim.core.controler.corelisteners.PlansScoringImpl
2016-01-31 12:25:34,536  INFO ControlerListenerManager:168 calling notifyIterationEnds on org.matsim.counts.CountsControlerListener
2016-01-31 12:25:34,536  INFO CountSimComparisonTableWriter:93 Writing CountsSimComparison to ./output/ITERS/it.20/20.countscompare.txt
2016-01-31 12:25:34,536  INFO CountSimComparisonTableWriter:127 Writing 'average weekday traffic volume' to ./output/ITERS/it.20/20.countscompareAWTV.txt
2016-01-31 12:25:34,537  INFO ControlerListenerManager:168 calling notifyIterationEnds on org.matsim.analysis.ScoreStatsControlerListener
2016-01-31 12:25:34,556  INFO ScoreStatsControlerListener:185 -- avg. score of the executed plan of each agent: 108.7751875656488
2016-01-31 12:25:34,556  INFO ScoreStatsControlerListener:186 -- avg. score of the worst plan of each agent: 93.56227782188759
2016-01-31 12:25:34,556  INFO ScoreStatsControlerListener:187 -- avg. of the avg. plan score per agent: 104.47114617575474
2016-01-31 12:25:34,556  INFO ScoreStatsControlerListener:188 -- avg. score of the best plan of each agent: 112.93075242185942
2016-01-31 12:25:34,623  INFO ControlerListenerManager:168 calling notifyIterationEnds on org.matsim.analysis.TravelDistanceStatsControlerListener
2016-01-31 12:25:34,626  INFO TravelDistanceStats:128 [TravelDistanceStats] using 8 thread(s).
2016-01-31 12:25:34,641  INFO TravelDistanceStats:141 [TravelDistanceStats] all threads finished.
2016-01-31 12:25:34,641  INFO TravelDistanceStats:161 -- average of the average leg distance per plan (executed plans only): 1776.8184517697694
2016-01-31 12:25:34,641  INFO TravelDistanceStats:162 (TravelDistanceStats takes an average over all legs where the simulation reports travelled distances. These are car legs, pt legs,
2016-01-31 12:25:34,641  INFO TravelDistanceStats:163 (and teleported legs whose route contains a distance.)
2016-01-31 12:25:34,704  INFO ControlerListenerManager:168 calling notifyIterationEnds on org.matsim.analysis.LegHistogramListener
2016-01-31 12:25:34,709  INFO LegHistogramListener:72 number of legs:	359068	100%
2016-01-31 12:25:34,709  INFO LegHistogramListener:79 number of pt legs:	106018	29.525883676629498%
2016-01-31 12:25:34,709  INFO LegHistogramListener:79 number of transit_walk legs:	253050	70.47411632337051%
2016-01-31 12:25:35,125  INFO ControlerListenerManager:168 calling notifyIterationEnds on org.matsim.analysis.LinkStatsControlerListener
2016-01-31 12:25:35,209  INFO ControlerListenerManager:172 [it.20] all ControlerIterationEndsListeners called.
2016-01-31 12:25:35,305  INFO AbstractController:180 ### ITERATION 20 ENDS
2016-01-31 12:25:35,305  INFO AbstractController:181 ###################################################
2016-01-31 12:25:35,305  INFO MatsimRuntimeModifications:108 S H U T D O W N   ---   start shutdown.
2016-01-31 12:25:35,305  INFO ControlerListenerManager:122 calling notifyShutdown on org.matsim.core.controler.corelisteners.EventsHandlingImpl
2016-01-31 12:25:35,305  INFO ControlerListenerManager:122 calling notifyShutdown on org.matsim.core.controler.corelisteners.DumpDataAtEndImpl
2016-01-31 12:25:35,324  INFO Counter:51 [PopulationWriter] dumped person # 1
2016-01-31 12:25:35,325  INFO Counter:51 [PopulationWriter] dumped person # 2
2016-01-31 12:25:35,325  INFO Counter:51 [PopulationWriter] dumped person # 4
2016-01-31 12:25:35,326  INFO Counter:51 [PopulationWriter] dumped person # 8
2016-01-31 12:25:35,327  INFO Counter:51 [PopulationWriter] dumped person # 16
2016-01-31 12:25:35,330  INFO Counter:51 [PopulationWriter] dumped person # 32
2016-01-31 12:25:35,335  INFO Counter:51 [PopulationWriter] dumped person # 64
2016-01-31 12:25:35,346  INFO Counter:51 [PopulationWriter] dumped person # 128
2016-01-31 12:25:35,369  INFO Counter:51 [PopulationWriter] dumped person # 256
2016-01-31 12:25:35,414  INFO Counter:51 [PopulationWriter] dumped person # 512
2016-01-31 12:25:35,502  INFO Counter:51 [PopulationWriter] dumped person # 1024
2016-01-31 12:25:35,678  INFO Counter:51 [PopulationWriter] dumped person # 2048
2016-01-31 12:25:36,038  INFO Counter:51 [PopulationWriter] dumped person # 4096
2016-01-31 12:25:36,781  INFO Counter:51 [PopulationWriter] dumped person # 8192
2016-01-31 12:25:38,197  INFO Counter:51 [PopulationWriter] dumped person # 16384
2016-01-31 12:25:41,023  INFO Counter:51 [PopulationWriter] dumped person # 32768
2016-01-31 12:25:45,190  INFO PopulationWriter:95 Population written to: ./output/output_plans.xml.gz
2016-01-31 12:25:45,191  INFO Counter:57 [PopulationWriter] dumped person # 59487
2016-01-31 12:25:45,195  INFO NetworkWriter:46 Writing network to file: ./output/output_network.xml.gz...
2016-01-31 12:25:45,224  INFO NetworkWriter:49 done.
2016-01-31 12:25:45,239  INFO VehicleWriterV1:55 Vehicles written to: ./output/output_transitVehicles.xml.gz
2016-01-31 12:25:45,240  INFO VehicleWriterV1:55 Vehicles written to: ./output/output_vehicles.xml.gz
2016-01-31 12:25:45,241  INFO Counter:57 [HouseholdsWriter] dumped household # 0
2016-01-31 12:25:45,243  INFO LaneDefinitionsWriter20:62 Using LaneDefinitionWriter20...
2016-01-31 12:25:45,243  INFO LaneDefinitionsWriter20:71 writing to file: ./output/output_lanes.xml.gz
2016-01-31 12:25:45,313  INFO ControlerListenerManager:127 calling notifyShutdown on org.matsim.analysis.ScoreStatsControlerListener
2016-01-31 12:25:45,313  INFO ControlerListenerManager:127 calling notifyShutdown on org.matsim.analysis.TravelDistanceStatsControlerListener
2016-01-31 12:25:45,314  INFO ControlerListenerManager:130 all ControlerShutdownListeners called.
2016-01-31 12:25:45,314  INFO MatsimRuntimeModifications:131 S H U T D O W N   ---   shutdown completed.
2016-01-31 12:25:45,314  INFO OutputDirectoryLogging:168 closing the logfile, i.e. messages sent to the logger after this message are not written to the logfile.
