2016-01-31 18:21:06,887  INFO Gbl:57 JVM: 1.8.0_20; Oracle Corporation; mixed mode; 64-bit
2016-01-31 18:21:06,887  INFO Gbl:61 OS: Windows 8.1; 6.3; amd64
2016-01-31 18:21:06,887  INFO Gbl:64 CPU cores: 8
2016-01-31 18:21:06,888  INFO Gbl:65 max. Memory: 1803.0MB (1890582528B)
2016-01-31 18:21:06,889  INFO Gbl:103 MATSim-Build: r${buildNumber} (${timestamp})
2016-01-31 18:21:06,889  INFO AbstractController:61 Used Controler-Class: org.matsim.core.controler.Controler
2016-01-31 18:21:06,932  INFO ScenarioLoaderImpl:100 loading scenario from base directory: C:\MATSim\workspace-mars\dta-brt\
2016-01-31 18:21:06,933  INFO ScenarioLoaderImpl:123 loading network from ./input/specialNetwork.xml
2016-01-31 18:21:06,935  INFO MatsimXmlParser:145 starting to parse xml from file ./input/specialNetwork.xml ...
2016-01-31 18:21:06,937  INFO MatsimNetworkReader:83 using network_v1-reader.
2016-01-31 18:21:06,937  INFO MatsimXmlParser:253 Trying to load http://www.matsim.org/files/dtd/network_v1.dtd. In some cases (e.g. network interface up but no connection), this may take a bit.
2016-01-31 18:21:07,140  INFO NetworkImpl:134  node # 1
2016-01-31 18:21:07,140  INFO NetworkImpl:134  node # 2
2016-01-31 18:21:07,141  INFO NetworkImpl:134  node # 4
2016-01-31 18:21:07,141  INFO NetworkImpl:134  node # 8
2016-01-31 18:21:07,142  INFO NetworkImpl:134  node # 16
2016-01-31 18:21:07,143  INFO NetworkImpl:134  node # 32
2016-01-31 18:21:07,146  INFO NetworkImpl:134  node # 64
2016-01-31 18:21:07,150  INFO NetworkImpl:134  node # 128
2016-01-31 18:21:07,158  INFO NetworkImpl:134  node # 256
2016-01-31 18:21:07,168  INFO NetworkImpl:134  node # 512
2016-01-31 18:21:07,180  INFO NetworkImpl:134  node # 1024
2016-01-31 18:21:07,199  INFO NetworkImpl:130  link # 1
2016-01-31 18:21:07,200  INFO NetworkImpl:130  link # 2
2016-01-31 18:21:07,200  INFO NetworkImpl:130  link # 4
2016-01-31 18:21:07,200  INFO NetworkImpl:130  link # 8
2016-01-31 18:21:07,201  INFO NetworkImpl:130  link # 16
2016-01-31 18:21:07,202  INFO NetworkImpl:130  link # 32
2016-01-31 18:21:07,203  INFO NetworkImpl:130  link # 64
2016-01-31 18:21:07,206  INFO NetworkImpl:130  link # 128
2016-01-31 18:21:07,211  INFO NetworkImpl:130  link # 256
2016-01-31 18:21:07,215  WARN LinkImpl:111 [from=to=[id=56][coord=[x=1063203.287337012][y=877613.5198577307]][type=null][nof_inlinks=1][nof_outlinks=1] link is a loop]
2016-01-31 18:21:07,215  WARN LinkImpl:113  Future occurences of this logging statement are suppressed.
2016-01-31 18:21:07,216  WARN NodeImpl:98 [id=56][coord=[x=1063203.287337012][y=877613.5198577307]][type=null][nof_inlinks=1][nof_outlinks=2][inlink_id=56-56 is now in- and out-link]
2016-01-31 18:21:07,216  WARN NodeImpl:99  This message given only once.
2016-01-31 18:21:07,225  INFO NetworkImpl:130  link # 512
2016-01-31 18:21:07,241  INFO NetworkImpl:130  link # 1024
2016-01-31 18:21:07,258  INFO NetworkImpl:130  link # 2048
2016-01-31 18:21:07,269  INFO ScenarioLoaderImpl:147 no facilities file set in config, therefore not loading any facilities.  This is not a problem except if you are using facilities
2016-01-31 18:21:07,269  INFO ScenarioLoaderImpl:155 no facility-attributes file set in config, not loading any facility attributes
2016-01-31 18:21:07,269  INFO ScenarioLoaderImpl:162 loading population from ./input/plans_sitm_cali_01.04.2014_final.xml
2016-01-31 18:21:07,274  INFO MatsimXmlParser:145 starting to parse xml from file ./input/plans_sitm_cali_01.04.2014_final.xml ...
2016-01-31 18:21:07,280  INFO MatsimPopulationReader:86 using population_v5-reader.
2016-01-31 18:21:07,280  INFO MatsimXmlParser:253 Trying to load http://www.matsim.org/files/dtd/population_v5.dtd. In some cases (e.g. network interface up but no connection), this may take a bit.
2016-01-31 18:21:07,589  INFO PopulationImpl:176  person # 1
2016-01-31 18:21:07,589  INFO PopulationImpl:176  person # 2
2016-01-31 18:21:07,589  INFO PopulationImpl:176  person # 4
2016-01-31 18:21:07,590  INFO PopulationImpl:176  person # 8
2016-01-31 18:21:07,591  INFO PopulationImpl:176  person # 16
2016-01-31 18:21:07,594  INFO PopulationImpl:176  person # 32
2016-01-31 18:21:07,598  INFO PopulationImpl:176  person # 64
2016-01-31 18:21:07,605  INFO PopulationImpl:176  person # 128
2016-01-31 18:21:07,611  INFO PopulationImpl:176  person # 256
2016-01-31 18:21:07,624  INFO PopulationImpl:176  person # 512
2016-01-31 18:21:07,650  INFO PopulationImpl:176  person # 1024
2016-01-31 18:21:07,686  INFO PopulationImpl:176  person # 2048
2016-01-31 18:21:07,765  INFO PopulationImpl:176  person # 4096
2016-01-31 18:21:07,871  INFO PopulationImpl:176  person # 8192
2016-01-31 18:21:08,016  INFO PopulationImpl:176  person # 16384
2016-01-31 18:21:08,226  INFO PopulationImpl:176  person # 32768
2016-01-31 18:21:08,640  INFO PopulationImpl:176  person # 65536
2016-01-31 18:21:09,914  INFO PopulationImpl:176  person # 131072
2016-01-31 18:21:10,520  INFO PopulationImpl:176  person # 188594
2016-01-31 18:21:10,520  INFO ScenarioLoaderImpl:178 no person-attributes file set in config, not loading any person attributes
2016-01-31 18:21:10,520  INFO ScenarioLoaderImpl:190 no households file set in config, not loading households
2016-01-31 18:21:10,520  INFO ScenarioLoaderImpl:198 no household-attributes file set in config, not loading any household attributes
2016-01-31 18:21:10,525 DEBUG MatsimFileTypeGuesser:147 Detected public id: null
2016-01-31 18:21:10,525 DEBUG MatsimFileTypeGuesser:148 Detected system Id: http://www.matsim.org/files/dtd/transitSchedule_v1.dtd
2016-01-31 18:21:10,527  INFO MatsimXmlParser:145 starting to parse xml from file ./input/transitSchedule_MAX_VEHICLES.xml ...
2016-01-31 18:21:10,529  INFO MatsimXmlParser:253 Trying to load http://www.matsim.org/files/dtd/transitSchedule_v1.dtd. In some cases (e.g. network interface up but no connection), this may take a bit.
2016-01-31 18:21:10,755  INFO ScenarioLoaderImpl:225 loading transit vehicles from ./input/transitVehicles_MAX_VEHICLES.xml
2016-01-31 18:21:10,757  INFO MatsimXmlParser:145 starting to parse xml from file ./input/transitVehicles_MAX_VEHICLES.xml ...
2016-01-31 18:21:10,759  INFO MatsimXmlParser:253 Trying to load http://www.matsim.org/files/dtd/vehicleDefinitions_v1.0.xsd. In some cases (e.g. network interface up but no connection), this may take a bit.
2016-01-31 18:21:11,046  INFO MatsimXmlParser:253 Trying to load http://www.matsim.org/files/dtd/matsimCommon.xsd. In some cases (e.g. network interface up but no connection), this may take a bit.
2016-01-31 18:21:11,255  INFO MatsimXmlParser:253 Trying to load http://www.matsim.org/files/dtd/vehicleDefinitionsEnumTypes.xsd. In some cases (e.g. network interface up but no connection), this may take a bit.
2016-01-31 18:21:11,483  INFO Counter:51  vehicles # 1
2016-01-31 18:21:11,483  INFO Counter:51  vehicles # 2
2016-01-31 18:21:11,483  INFO Counter:51  vehicles # 4
2016-01-31 18:21:11,484  INFO Counter:51  vehicles # 8
2016-01-31 18:21:11,484  INFO Counter:51  vehicles # 16
2016-01-31 18:21:11,485  INFO Counter:51  vehicles # 32
2016-01-31 18:21:11,486  INFO Counter:51  vehicles # 64
2016-01-31 18:21:11,490  INFO Counter:51  vehicles # 128
2016-01-31 18:21:11,496  INFO Counter:51  vehicles # 256
2016-01-31 18:21:11,505  INFO Counter:51  vehicles # 512
2016-01-31 18:21:11,517  INFO Counter:51  vehicles # 1024
2016-01-31 18:21:11,524  INFO Controler:255 setting up transit simulation
2016-01-31 18:21:12,118  INFO EventsManagerImpl:144 adding Event-Handler: org.matsim.core.trafficmonitoring.TravelTimeCalculator
2016-01-31 18:21:12,119  INFO EventsManagerImpl:148   org.matsim.api.core.v01.events.handler.LinkEnterEventHandler
2016-01-31 18:21:12,119  INFO EventsManagerImpl:207     > org.matsim.api.core.v01.events.LinkEnterEvent
2016-01-31 18:21:12,120  INFO EventsManagerImpl:148   org.matsim.api.core.v01.events.handler.LinkLeaveEventHandler
2016-01-31 18:21:12,121  INFO EventsManagerImpl:207     > org.matsim.api.core.v01.events.LinkLeaveEvent
2016-01-31 18:21:12,121  INFO EventsManagerImpl:148   org.matsim.api.core.v01.events.handler.Wait2LinkEventHandler
2016-01-31 18:21:12,122  INFO EventsManagerImpl:207     > org.matsim.api.core.v01.events.Wait2LinkEvent
2016-01-31 18:21:12,122  INFO EventsManagerImpl:148   org.matsim.api.core.v01.events.handler.VehicleLeavesTrafficEventHandler
2016-01-31 18:21:12,123  INFO EventsManagerImpl:207     > org.matsim.api.core.v01.events.VehicleLeavesTrafficEvent
2016-01-31 18:21:12,123  INFO EventsManagerImpl:148   org.matsim.core.api.experimental.events.handler.VehicleArrivesAtFacilityEventHandler
2016-01-31 18:21:12,124  INFO EventsManagerImpl:207     > org.matsim.core.api.experimental.events.VehicleArrivesAtFacilityEvent
2016-01-31 18:21:12,124  INFO EventsManagerImpl:148   org.matsim.api.core.v01.events.handler.VehicleAbortsEventHandler
2016-01-31 18:21:12,125  INFO EventsManagerImpl:207     > org.matsim.api.core.v01.events.VehicleAbortsEvent
2016-01-31 18:21:12,125  INFO EventsManagerImpl:156 
2016-01-31 18:21:12,125  INFO EventsManagerImpl:144 adding Event-Handler: org.matsim.core.trafficmonitoring.TravelTimeCalculator
2016-01-31 18:21:12,125  INFO EventsManagerImpl:148   org.matsim.api.core.v01.events.handler.LinkEnterEventHandler
2016-01-31 18:21:12,126  INFO EventsManagerImpl:207     > org.matsim.api.core.v01.events.LinkEnterEvent
2016-01-31 18:21:12,126  INFO EventsManagerImpl:148   org.matsim.api.core.v01.events.handler.LinkLeaveEventHandler
2016-01-31 18:21:12,126  INFO EventsManagerImpl:207     > org.matsim.api.core.v01.events.LinkLeaveEvent
2016-01-31 18:21:12,126  INFO EventsManagerImpl:148   org.matsim.api.core.v01.events.handler.Wait2LinkEventHandler
2016-01-31 18:21:12,126  INFO EventsManagerImpl:207     > org.matsim.api.core.v01.events.Wait2LinkEvent
2016-01-31 18:21:12,126  INFO EventsManagerImpl:148   org.matsim.api.core.v01.events.handler.VehicleLeavesTrafficEventHandler
2016-01-31 18:21:12,127  INFO EventsManagerImpl:207     > org.matsim.api.core.v01.events.VehicleLeavesTrafficEvent
2016-01-31 18:21:12,127  INFO EventsManagerImpl:148   org.matsim.core.api.experimental.events.handler.VehicleArrivesAtFacilityEventHandler
2016-01-31 18:21:12,127  INFO EventsManagerImpl:207     > org.matsim.core.api.experimental.events.VehicleArrivesAtFacilityEvent
2016-01-31 18:21:12,127  INFO EventsManagerImpl:148   org.matsim.api.core.v01.events.handler.VehicleAbortsEventHandler
2016-01-31 18:21:12,127  INFO EventsManagerImpl:207     > org.matsim.api.core.v01.events.VehicleAbortsEvent
2016-01-31 18:21:12,127  INFO EventsManagerImpl:156 
2016-01-31 18:21:12,129  INFO CalcLinkStats:151  resetting `count' to zero.  This info is here since we want to check when this is happening during normal simulation runs.  kai, jan'11
2016-01-31 18:21:12,134  INFO EventsManagerImpl:144 adding Event-Handler: org.matsim.analysis.VolumesAnalyzer
2016-01-31 18:21:12,135  INFO EventsManagerImpl:148   org.matsim.api.core.v01.events.handler.LinkLeaveEventHandler
2016-01-31 18:21:12,135  INFO EventsManagerImpl:207     > org.matsim.api.core.v01.events.LinkLeaveEvent
2016-01-31 18:21:12,135  INFO EventsManagerImpl:148   org.matsim.api.core.v01.events.handler.PersonDepartureEventHandler
2016-01-31 18:21:12,135  INFO EventsManagerImpl:207     > org.matsim.api.core.v01.events.PersonDepartureEvent
2016-01-31 18:21:12,135  INFO EventsManagerImpl:156 
2016-01-31 18:21:12,135  INFO EventsManagerImpl:144 adding Event-Handler: org.matsim.analysis.VolumesAnalyzer
2016-01-31 18:21:12,135  INFO EventsManagerImpl:148   org.matsim.api.core.v01.events.handler.LinkLeaveEventHandler
2016-01-31 18:21:12,136  INFO EventsManagerImpl:207     > org.matsim.api.core.v01.events.LinkLeaveEvent
2016-01-31 18:21:12,136  INFO EventsManagerImpl:148   org.matsim.api.core.v01.events.handler.PersonDepartureEventHandler
2016-01-31 18:21:12,136  INFO EventsManagerImpl:207     > org.matsim.api.core.v01.events.PersonDepartureEvent
2016-01-31 18:21:12,136  INFO EventsManagerImpl:156 
2016-01-31 18:21:12,138  INFO Injector:81 org.matsim.api.core.v01.Scenario
2016-01-31 18:21:12,138  INFO Injector:82    -> of(org.matsim.core.scenario.MutableScenario@478190fc)
2016-01-31 18:21:12,138  INFO Injector:81 org.matsim.pt.transitSchedule.api.TransitSchedule
2016-01-31 18:21:12,139  INFO Injector:82    -> Key[type=org.matsim.core.scenario.ScenarioByInstanceModule$TransitScheduleProvider, annotation=[none]]
2016-01-31 18:21:12,139  INFO Injector:81 org.matsim.vehicles.Vehicles
2016-01-31 18:21:12,139  INFO Injector:82    -> Key[type=org.matsim.core.scenario.ScenarioByInstanceModule$TransitVehiclesProvider, annotation=[none]]
2016-01-31 18:21:12,139  INFO Injector:81 org.matsim.lanes.data.v20.Lanes
2016-01-31 18:21:12,141  INFO Injector:82    -> @Provides org.matsim.core.scenario.ScenarioByInstanceModule.provideLanes(ScenarioByInstanceModule.java:64)
2016-01-31 18:21:12,141  INFO Injector:81 org.matsim.api.core.v01.network.Network
2016-01-31 18:21:12,142  INFO Injector:82    -> @Provides org.matsim.core.scenario.ScenarioByInstanceModule.provideNetwork(ScenarioByInstanceModule.java:37)
2016-01-31 18:21:12,142  INFO Injector:81 org.matsim.vehicles.Vehicles
2016-01-31 18:21:12,142  INFO Injector:82    -> @Provides org.matsim.core.scenario.ScenarioByInstanceModule.provideVehicles(ScenarioByInstanceModule.java:59)
2016-01-31 18:21:12,142  INFO Injector:81 org.matsim.households.Households
2016-01-31 18:21:12,142  INFO Injector:82    -> @Provides org.matsim.core.scenario.ScenarioByInstanceModule.provideHouseholds(ScenarioByInstanceModule.java:54)
2016-01-31 18:21:12,142  INFO Injector:81 org.matsim.facilities.ActivityFacilities
2016-01-31 18:21:12,142  INFO Injector:82    -> @Provides org.matsim.core.scenario.ScenarioByInstanceModule.provideActivityFacilities(ScenarioByInstanceModule.java:49)
2016-01-31 18:21:12,142  INFO Injector:81 org.matsim.api.core.v01.population.PopulationFactory
2016-01-31 18:21:12,142  INFO Injector:82    -> @Provides org.matsim.core.scenario.ScenarioByInstanceModule.providePopulationFactory(ScenarioByInstanceModule.java:45)
2016-01-31 18:21:12,142  INFO Injector:81 org.matsim.api.core.v01.population.Population
2016-01-31 18:21:12,143  INFO Injector:82    -> @Provides org.matsim.core.scenario.ScenarioByInstanceModule.providePopulation(ScenarioByInstanceModule.java:41)
2016-01-31 18:21:12,143  INFO Injector:81 org.matsim.core.controler.corelisteners.PlansScoring
2016-01-31 18:21:12,144  INFO Injector:82    -> FactoryProxy{key=Key[type=org.matsim.core.controler.corelisteners.PlansScoring, annotation=[none]], provider=com.google.inject.internal.ConstructorBindingImpl$Factory@6069db50[Scopes.SINGLETON]}
2016-01-31 18:21:12,144  INFO Injector:81 org.matsim.core.controler.corelisteners.PlansReplanning
2016-01-31 18:21:12,144  INFO Injector:82    -> FactoryProxy{key=Key[type=org.matsim.core.controler.corelisteners.PlansReplanning, annotation=[none]], provider=com.google.inject.internal.ConstructorBindingImpl$Factory@59662a0b[Scopes.SINGLETON]}
2016-01-31 18:21:12,144  INFO Injector:81 org.matsim.core.controler.corelisteners.PlansDumping
2016-01-31 18:21:12,144  INFO Injector:82    -> FactoryProxy{key=Key[type=org.matsim.core.controler.corelisteners.PlansDumping, annotation=[none]], provider=com.google.inject.internal.ConstructorBindingImpl$Factory@1a482e36[Scopes.SINGLETON]}
2016-01-31 18:21:12,144  INFO Injector:81 org.matsim.core.controler.corelisteners.EventsHandling
2016-01-31 18:21:12,144  INFO Injector:82    -> FactoryProxy{key=Key[type=org.matsim.core.controler.corelisteners.EventsHandling, annotation=[none]], provider=com.google.inject.internal.ConstructorBindingImpl$Factory@2f9f7dcf[Scopes.SINGLETON]}
2016-01-31 18:21:12,144  INFO Injector:81 org.matsim.core.controler.corelisteners.DumpDataAtEnd
2016-01-31 18:21:12,145  INFO Injector:82    -> FactoryProxy{key=Key[type=org.matsim.core.controler.corelisteners.DumpDataAtEnd, annotation=[none]], provider=com.google.inject.internal.ConstructorBindingImpl$Factory@1bd4fdd[Scopes.SINGLETON]}
2016-01-31 18:21:12,145  INFO Injector:81 org.matsim.core.api.experimental.events.EventsManager
2016-01-31 18:21:12,145  INFO Injector:82    -> FactoryProxy{key=Key[type=org.matsim.core.api.experimental.events.EventsManager, annotation=[none]], provider=com.google.inject.internal.ConstructorBindingImpl$Factory@6cf0e0ba}[Scopes.SINGLETON]
2016-01-31 18:21:12,145  INFO Injector:81 org.matsim.core.mobsim.framework.Mobsim
2016-01-31 18:21:12,145  INFO Injector:82    -> Key[type=org.matsim.core.mobsim.qsim.QSimProvider, annotation=[none]]
2016-01-31 18:21:12,145  INFO Injector:81 org.matsim.core.trafficmonitoring.TravelTimeCalculator
2016-01-31 18:21:12,146  INFO Injector:82    -> Key[type=org.matsim.core.trafficmonitoring.TravelTimeCalculatorModule$TravelTimeCalculatorProvider, annotation=[none]][Scopes.SINGLETON]
2016-01-31 18:21:12,146  INFO Injector:81 org.matsim.core.router.util.TravelTime
2016-01-31 18:21:12,146  INFO Injector:82    -> Key[type=org.matsim.core.trafficmonitoring.TravelTimeCalculatorModule$FromTravelTimeCalculator, annotation=[none]]
2016-01-31 18:21:12,146  INFO Injector:81 org.matsim.core.router.costcalculators.TravelDisutilityFactory
2016-01-31 18:21:12,146  INFO Injector:82    -> of(org.matsim.core.router.costcalculators.RandomizingTimeDistanceTravelDisutility$Builder@3c19aaa5)
2016-01-31 18:21:12,146  INFO Injector:81 org.matsim.core.scoring.ScoringFunctionFactory
2016-01-31 18:21:12,146  INFO Injector:82    -> FactoryProxy{key=Key[type=org.matsim.core.scoring.ScoringFunctionFactory, annotation=[none]], provider=com.google.inject.internal.ConstructorBindingImpl$Factory@38d8f54a}
2016-01-31 18:21:12,146  INFO Injector:81 org.matsim.core.scoring.functions.CharyparNagelScoringParametersForPerson
2016-01-31 18:21:12,146  INFO Injector:82    -> FactoryProxy{key=Key[type=org.matsim.core.scoring.functions.CharyparNagelScoringParametersForPerson, annotation=[none]], provider=com.google.inject.internal.ConstructorBindingImpl$Factory@2a3b5b47}
2016-01-31 18:21:12,147  INFO Injector:81 org.matsim.core.router.util.LeastCostPathCalculatorFactory
2016-01-31 18:21:12,147  INFO Injector:82    -> FactoryProxy{key=Key[type=org.matsim.core.router.util.LeastCostPathCalculatorFactory, annotation=[none]], provider=com.google.inject.internal.ConstructorBindingImpl$Factory@689604d9[Scopes.SINGLETON]}
2016-01-31 18:21:12,147  INFO Injector:81 org.matsim.pt.router.TransitRouter
2016-01-31 18:21:12,147  INFO Injector:82    -> Key[type=org.matsim.pt.router.TransitRouterImplFactory, annotation=[none]]
2016-01-31 18:21:12,147  INFO Injector:81 org.matsim.core.router.RoutingModule
2016-01-31 18:21:12,147  INFO Injector:82    -> org.matsim.core.router.TripRouterFactoryModule$PseudoTransitRoutingModuleProvider@659a969b
2016-01-31 18:21:12,147  INFO Injector:81 org.matsim.core.router.RoutingModule
2016-01-31 18:21:12,147  INFO Injector:82    -> org.matsim.core.router.TripRouterFactoryModule$TeleportationRoutingModuleProvider@76908cc0
2016-01-31 18:21:12,147  INFO Injector:81 org.matsim.core.router.RoutingModule
2016-01-31 18:21:12,147  INFO Injector:82    -> org.matsim.core.router.TripRouterFactoryModule$TeleportationRoutingModuleProvider@2473d930
2016-01-31 18:21:12,147  INFO Injector:81 org.matsim.core.router.RoutingModule
2016-01-31 18:21:12,147  INFO Injector:82    -> org.matsim.core.router.TripRouterFactoryModule$TeleportationRoutingModuleProvider@35047d03
2016-01-31 18:21:12,148  INFO Injector:81 org.matsim.core.router.RoutingModule
2016-01-31 18:21:12,148  INFO Injector:82    -> org.matsim.core.router.TripRouterFactoryModule$NetworkRoutingModuleProvider@49b0b76
2016-01-31 18:21:12,148  INFO Injector:81 org.matsim.core.router.RoutingModule
2016-01-31 18:21:12,148  INFO Injector:82    -> Key[type=org.matsim.core.router.TripRouterFactoryModule$TransitRoutingModuleProvider, annotation=[none]]
2016-01-31 18:21:12,148  INFO Injector:81 org.matsim.core.router.RoutingModule
2016-01-31 18:21:12,148  INFO Injector:82    -> FactoryProxy{key=Key[type=org.matsim.core.router.RoutingModule, annotation=@com.google.inject.name.Named(value=transit_walk)], provider=org.matsim.core.router.TripRouterFactoryModule$TeleportationRoutingModuleProvider@2473d930}
2016-01-31 18:21:12,148  INFO Injector:81 org.matsim.core.router.MainModeIdentifier
2016-01-31 18:21:12,148  INFO Injector:82    -> FactoryProxy{key=Key[type=org.matsim.core.router.MainModeIdentifier, annotation=[none]], provider=com.google.inject.internal.ConstructorBindingImpl$Factory@7c7b252e}
2016-01-31 18:21:12,148  INFO Injector:81 org.matsim.core.router.TripRouter
2016-01-31 18:21:12,148  INFO Injector:82    -> Key[type=org.matsim.core.router.TripRouterModule$RealTripRouterProvider, annotation=[none]]
2016-01-31 18:21:12,148  INFO Injector:81 org.matsim.core.replanning.selectors.GenericPlanSelector<org.matsim.api.core.v01.population.Plan, org.matsim.api.core.v01.population.Person>
2016-01-31 18:21:12,149  INFO Injector:82    -> FactoryProxy{key=Key[type=org.matsim.core.replanning.selectors.GenericPlanSelector<org.matsim.api.core.v01.population.Plan, org.matsim.api.core.v01.population.Person>, annotation=[none]], provider=com.google.inject.internal.ConstructorBindingImpl$Factory@48f2bd5b}
2016-01-31 18:21:12,149  INFO Injector:81 org.matsim.core.replanning.PlanStrategy
2016-01-31 18:21:12,149  INFO Injector:82    -> Key[type=org.matsim.core.replanning.modules.KeepLastSelectedPlanStrategyFactory, annotation=[none]]
2016-01-31 18:21:12,149  INFO Injector:81 org.matsim.core.replanning.PlanStrategy
2016-01-31 18:21:12,149  INFO Injector:82    -> Key[type=org.matsim.core.replanning.modules.SelectBestPlanStrategyFactory, annotation=[none]]
2016-01-31 18:21:12,149  INFO Injector:81 org.matsim.core.replanning.PlanStrategy
2016-01-31 18:21:12,149  INFO Injector:82    -> Key[type=org.matsim.core.replanning.modules.SelectExpBetaPlanStrategyFactory, annotation=[none]]
2016-01-31 18:21:12,149  INFO Injector:81 org.matsim.core.replanning.PlanStrategy
2016-01-31 18:21:12,149  INFO Injector:82    -> Key[type=org.matsim.core.replanning.modules.ChangeExpBetaPlanStrategyFactory, annotation=[none]]
2016-01-31 18:21:12,149  INFO Injector:81 org.matsim.core.replanning.PlanStrategy
2016-01-31 18:21:12,149  INFO Injector:82    -> Key[type=org.matsim.core.replanning.modules.SelectRandomStrategyFactory, annotation=[none]]
2016-01-31 18:21:12,149  INFO Injector:81 org.matsim.core.replanning.PlanStrategy
2016-01-31 18:21:12,150  INFO Injector:82    -> Key[type=org.matsim.core.replanning.modules.SelectPathSizeLogitStrategyFactory, annotation=[none]]
2016-01-31 18:21:12,150  INFO Injector:81 org.matsim.core.replanning.PlanStrategy
2016-01-31 18:21:12,150  INFO Injector:82    -> Key[type=org.matsim.core.replanning.modules.ReRoutePlanStrategyFactory, annotation=[none]]
2016-01-31 18:21:12,150  INFO Injector:81 org.matsim.core.replanning.PlanStrategy
2016-01-31 18:21:12,150  INFO Injector:82    -> Key[type=org.matsim.core.replanning.modules.TimeAllocationMutatorPlanStrategyFactory, annotation=[none]]
2016-01-31 18:21:12,150  INFO Injector:81 org.matsim.core.replanning.PlanStrategy
2016-01-31 18:21:12,150  INFO Injector:82    -> Key[type=org.matsim.core.replanning.modules.TimeAllocationMutatorReRoutePlanStrategyFactory, annotation=[none]]
2016-01-31 18:21:12,150  INFO Injector:81 org.matsim.core.replanning.PlanStrategy
2016-01-31 18:21:12,150  INFO Injector:82    -> Key[type=org.matsim.core.replanning.modules.ChangeSingleLegModeStrategyFactory, annotation=[none]]
2016-01-31 18:21:12,150  INFO Injector:81 org.matsim.core.replanning.PlanStrategy
2016-01-31 18:21:12,150  INFO Injector:82    -> Key[type=org.matsim.core.replanning.modules.ChangeLegModeStrategyFactory, annotation=[none]]
2016-01-31 18:21:12,150  INFO Injector:81 org.matsim.core.replanning.PlanStrategy
2016-01-31 18:21:12,150  INFO Injector:82    -> Key[type=org.matsim.core.replanning.modules.SubtourModeChoiceStrategyFactory, annotation=[none]]
2016-01-31 18:21:12,151  INFO Injector:81 org.matsim.core.replanning.PlanStrategy
2016-01-31 18:21:12,151  INFO Injector:82    -> Key[type=org.matsim.core.replanning.modules.ChangeTripModeStrategyFactory, annotation=[none]]
2016-01-31 18:21:12,151  INFO Injector:81 org.matsim.core.replanning.PlanStrategy
2016-01-31 18:21:12,151  INFO Injector:82    -> Key[type=org.matsim.core.replanning.modules.ChangeSingleTripModeStrategyFactory, annotation=[none]]
2016-01-31 18:21:12,151  INFO Injector:81 org.matsim.core.replanning.PlanStrategy
2016-01-31 18:21:12,151  INFO Injector:82    -> Key[type=org.matsim.core.replanning.modules.TripSubtourModeChoiceStrategyFactory, annotation=[none]]
2016-01-31 18:21:12,151  INFO Injector:81 org.matsim.core.replanning.ReplanningContext
2016-01-31 18:21:12,151  INFO Injector:82    -> FactoryProxy{key=Key[type=org.matsim.core.replanning.ReplanningContext, annotation=[none]], provider=com.google.inject.internal.ConstructorBindingImpl$Factory@74235045}
2016-01-31 18:21:12,151  INFO Injector:81 org.matsim.core.controler.listener.ControlerListener
2016-01-31 18:21:12,151  INFO Injector:82    -> FactoryProxy{key=Key[type=org.matsim.core.controler.listener.ControlerListener, annotation=@com.google.inject.multibindings.Element(setName=,uniqueId=143, type=MULTIBINDER, keyType=)], provider=com.google.inject.internal.ConstructorBindingImpl$Factory@30c15d8b[Scopes.SINGLETON]}
2016-01-31 18:21:12,151  INFO Injector:81 org.matsim.core.controler.listener.ControlerListener
2016-01-31 18:21:12,152  INFO Injector:82    -> FactoryProxy{key=Key[type=org.matsim.core.controler.listener.ControlerListener, annotation=@com.google.inject.multibindings.Element(setName=,uniqueId=144, type=MULTIBINDER, keyType=)], provider=com.google.inject.internal.ConstructorBindingImpl$Factory@51399530}
2016-01-31 18:21:12,152  INFO Injector:81 org.matsim.core.controler.listener.ControlerListener
2016-01-31 18:21:12,152  INFO Injector:82    -> FactoryProxy{key=Key[type=org.matsim.core.controler.listener.ControlerListener, annotation=@com.google.inject.multibindings.Element(setName=,uniqueId=145, type=MULTIBINDER, keyType=)], provider=com.google.inject.internal.ConstructorBindingImpl$Factory@2b71e916}
2016-01-31 18:21:12,152  INFO Injector:81 org.matsim.core.controler.listener.ControlerListener
2016-01-31 18:21:12,152  INFO Injector:82    -> FactoryProxy{key=Key[type=org.matsim.core.controler.listener.ControlerListener, annotation=@com.google.inject.multibindings.Element(setName=,uniqueId=146, type=MULTIBINDER, keyType=)], provider=com.google.inject.internal.ConstructorBindingImpl$Factory@13c9d689}
2016-01-31 18:21:12,152  INFO Injector:81 org.matsim.core.controler.listener.ControlerListener
2016-01-31 18:21:12,152  INFO Injector:82    -> FactoryProxy{key=Key[type=org.matsim.core.controler.listener.ControlerListener, annotation=@com.google.inject.multibindings.Element(setName=,uniqueId=147, type=MULTIBINDER, keyType=)], provider=com.google.inject.internal.ConstructorBindingImpl$Factory@4afcd809[Scopes.SINGLETON]}
2016-01-31 18:21:12,152  INFO Injector:81 org.matsim.analysis.ScoreStats
2016-01-31 18:21:12,152  INFO Injector:82    -> FactoryProxy{key=Key[type=org.matsim.analysis.ScoreStats, annotation=[none]], provider=com.google.inject.internal.ConstructorBindingImpl$Factory@4afcd809[Scopes.SINGLETON]}
2016-01-31 18:21:12,152  INFO Injector:81 org.matsim.core.controler.listener.ControlerListener
2016-01-31 18:21:12,153  INFO Injector:82    -> FactoryProxy{key=Key[type=org.matsim.core.controler.listener.ControlerListener, annotation=@com.google.inject.multibindings.Element(setName=,uniqueId=148, type=MULTIBINDER, keyType=)], provider=com.google.inject.internal.ConstructorBindingImpl$Factory@1d296da}
2016-01-31 18:21:12,153  INFO Injector:81 org.matsim.counts.Counts<org.matsim.api.core.v01.network.Link>
2016-01-31 18:21:12,153  INFO Injector:82    -> @Provides org.matsim.counts.CountsModule.provideLinkCounts(CountsModule.java:59)[Scopes.SINGLETON]
2016-01-31 18:21:12,153  INFO Injector:81 org.matsim.core.controler.listener.ControlerListener
2016-01-31 18:21:12,154  INFO Injector:82    -> FactoryProxy{key=Key[type=org.matsim.core.controler.listener.ControlerListener, annotation=@com.google.inject.multibindings.Element(setName=,uniqueId=149, type=MULTIBINDER, keyType=)], provider=com.google.inject.internal.ConstructorBindingImpl$Factory@3c46e67a}
2016-01-31 18:21:12,154  INFO Injector:81 org.matsim.core.controler.OutputDirectoryHierarchy
2016-01-31 18:21:12,154  INFO Injector:82    -> of(org.matsim.core.controler.OutputDirectoryHierarchy@292b08d6)
2016-01-31 18:21:12,154  INFO Injector:81 org.matsim.analysis.IterationStopWatch
2016-01-31 18:21:12,154  INFO Injector:82    -> of(org.matsim.analysis.IterationStopWatch@45752059)
2016-01-31 18:21:12,154  INFO Injector:81 org.matsim.core.controler.ControlerI
2016-01-31 18:21:12,154  INFO Injector:82    -> of(org.matsim.core.controler.Controler$2$1@54d9d12d)
2016-01-31 18:21:12,154  INFO Injector:81 org.matsim.core.router.RoutingModule
2016-01-31 18:21:12,154  INFO Injector:82    -> FactoryProxy{key=Key[type=org.matsim.core.router.RoutingModule, annotation=@com.google.inject.multibindings.Element(setName=,uniqueId=150, type=MAPBINDER, keyType=java.lang.String)], provider=Key[type=org.matsim.core.router.TripRouterFactoryModule$TransitRoutingModuleProvider, annotation=[none]]}
2016-01-31 18:21:12,154  INFO Injector:81 org.matsim.core.router.RoutingModule
2016-01-31 18:21:12,155  INFO Injector:82    -> FactoryProxy{key=Key[type=org.matsim.core.router.RoutingModule, annotation=@com.google.inject.multibindings.Element(setName=,uniqueId=152, type=MAPBINDER, keyType=java.lang.String)], provider=org.matsim.core.router.TripRouterFactoryModule$NetworkRoutingModuleProvider@49b0b76}
2016-01-31 18:21:12,155  INFO Injector:81 org.matsim.core.router.RoutingModule
2016-01-31 18:21:12,155  INFO Injector:82    -> FactoryProxy{key=Key[type=org.matsim.core.router.RoutingModule, annotation=@com.google.inject.multibindings.Element(setName=,uniqueId=154, type=MAPBINDER, keyType=java.lang.String)], provider=FactoryProxy{key=Key[type=org.matsim.core.router.RoutingModule, annotation=@com.google.inject.name.Named(value=transit_walk)], provider=org.matsim.core.router.TripRouterFactoryModule$TeleportationRoutingModuleProvider@2473d930}}
2016-01-31 18:21:12,155  INFO Injector:81 org.matsim.core.router.RoutingModule
2016-01-31 18:21:12,155  INFO Injector:82    -> FactoryProxy{key=Key[type=org.matsim.core.router.RoutingModule, annotation=@com.google.inject.multibindings.Element(setName=,uniqueId=156, type=MAPBINDER, keyType=java.lang.String)], provider=org.matsim.core.router.TripRouterFactoryModule$PseudoTransitRoutingModuleProvider@659a969b}
2016-01-31 18:21:12,155  INFO Injector:81 org.matsim.core.router.RoutingModule
2016-01-31 18:21:12,156  INFO Injector:82    -> FactoryProxy{key=Key[type=org.matsim.core.router.RoutingModule, annotation=@com.google.inject.multibindings.Element(setName=,uniqueId=158, type=MAPBINDER, keyType=java.lang.String)], provider=org.matsim.core.router.TripRouterFactoryModule$TeleportationRoutingModuleProvider@2473d930}
2016-01-31 18:21:12,156  INFO Injector:81 org.matsim.core.router.RoutingModule
2016-01-31 18:21:12,156  INFO Injector:82    -> FactoryProxy{key=Key[type=org.matsim.core.router.RoutingModule, annotation=@com.google.inject.multibindings.Element(setName=,uniqueId=160, type=MAPBINDER, keyType=java.lang.String)], provider=org.matsim.core.router.TripRouterFactoryModule$TeleportationRoutingModuleProvider@76908cc0}
2016-01-31 18:21:12,156  INFO Injector:81 org.matsim.core.router.RoutingModule
2016-01-31 18:21:12,156  INFO Injector:82    -> FactoryProxy{key=Key[type=org.matsim.core.router.RoutingModule, annotation=@com.google.inject.multibindings.Element(setName=,uniqueId=162, type=MAPBINDER, keyType=java.lang.String)], provider=org.matsim.core.router.TripRouterFactoryModule$TeleportationRoutingModuleProvider@35047d03}
2016-01-31 18:21:12,156  INFO Injector:81 org.matsim.core.router.util.TravelTime
2016-01-31 18:21:12,156  INFO Injector:82    -> FactoryProxy{key=Key[type=org.matsim.core.router.util.TravelTime, annotation=@com.google.inject.multibindings.Element(setName=,uniqueId=164, type=MAPBINDER, keyType=java.lang.String)], provider=Key[type=org.matsim.core.trafficmonitoring.TravelTimeCalculatorModule$FromTravelTimeCalculator, annotation=[none]]}
2016-01-31 18:21:12,157  INFO Injector:81 org.matsim.core.router.costcalculators.TravelDisutilityFactory
2016-01-31 18:21:12,157  INFO Injector:82    -> FactoryProxy{key=Key[type=org.matsim.core.router.costcalculators.TravelDisutilityFactory, annotation=@com.google.inject.multibindings.Element(setName=,uniqueId=166, type=MAPBINDER, keyType=java.lang.String)], provider=ConstantFactory{value=org.matsim.core.router.costcalculators.RandomizingTimeDistanceTravelDisutility$Builder@3c19aaa5}[Scopes.SINGLETON]}
2016-01-31 18:21:12,157  INFO Injector:81 org.matsim.core.scoring.EventsToScore
2016-01-31 18:21:12,157  INFO Injector:82    -> com.google.inject.internal.ConstructorBindingImpl$Factory@7e6f74c
2016-01-31 18:21:12,157  INFO Injector:81 org.matsim.core.router.SingleModeNetworksCache
2016-01-31 18:21:12,157  INFO Injector:82    -> com.google.inject.internal.ConstructorBindingImpl$Factory@2f4948e4[Scopes.SINGLETON]
2016-01-31 18:21:12,157  INFO Injector:81 org.matsim.core.replanning.StrategyManager
2016-01-31 18:21:12,158  INFO Injector:82    -> com.google.inject.internal.ConstructorBindingImpl$Factory@3fc2959f[Scopes.SINGLETON]
2016-01-31 18:21:12,158  INFO Injector:81 org.matsim.analysis.CalcLinkStats
2016-01-31 18:21:12,158  INFO Injector:82    -> com.google.inject.internal.ConstructorBindingImpl$Factory@385c9627[Scopes.SINGLETON]
2016-01-31 18:21:12,158  INFO Injector:81 org.matsim.analysis.LinkStatsControlerListener
2016-01-31 18:21:12,158  INFO Injector:82    -> com.google.inject.internal.ConstructorBindingImpl$Factory@30c15d8b[Scopes.SINGLETON]
2016-01-31 18:21:12,158  INFO Injector:81 org.matsim.analysis.VolumesAnalyzer
2016-01-31 18:21:12,158  INFO Injector:82    -> com.google.inject.internal.ConstructorBindingImpl$Factory@229f66ed[Scopes.SINGLETON]
2016-01-31 18:21:12,159  INFO Injector:81 org.matsim.analysis.LegHistogram
2016-01-31 18:21:12,159  INFO Injector:82    -> com.google.inject.internal.ConstructorBindingImpl$Factory@6743e411
2016-01-31 18:21:12,159  INFO Injector:81 org.matsim.analysis.CalcLegTimes
2016-01-31 18:21:12,159  INFO Injector:82    -> com.google.inject.internal.ConstructorBindingImpl$Factory@77c2494c[Scopes.SINGLETON]
2016-01-31 18:21:12,159  INFO Injector:81 org.matsim.analysis.TravelDistanceStats
2016-01-31 18:21:12,159  INFO Injector:82    -> com.google.inject.internal.ConstructorBindingImpl$Factory@3eb738bb[Scopes.SINGLETON]
2016-01-31 18:21:12,159  INFO Injector:81 org.matsim.analysis.ScoreStatsControlerListener
2016-01-31 18:21:12,159  INFO Injector:82    -> com.google.inject.internal.ConstructorBindingImpl$Factory@4afcd809[Scopes.SINGLETON]
2016-01-31 18:21:12,159  INFO Injector:81 org.matsim.counts.CountsModule$CountsInitializer
2016-01-31 18:21:12,160  INFO Injector:82    -> com.google.inject.internal.ConstructorBindingImpl$Factory@9d5509a[Scopes.SINGLETON]
2016-01-31 18:21:12,175  INFO StrategyManager:67 global innovation switch off after iteration: 2147483647
2016-01-31 18:21:12,177  INFO GenericStrategyManager:315 added change request:  iteration=-2147483648 newWeight=0.0 strategy=RandomPlanSelector_ReRoute
2016-01-31 18:21:12,177  INFO GenericStrategyManager:315 added change request:  iteration=-2147483648 newWeight=0.0 strategy=RandomPlanSelector_TimeAllocationMutator
2016-01-31 18:21:12,177  INFO GenericStrategyManager:347 setting PlanSelectorForRemoval to class org.matsim.core.replanning.selectors.WorstPlanForRemovalSelector
2016-01-31 18:21:13,378  INFO EventsManagerImpl:144 adding Event-Handler: org.matsim.core.scoring.EventsToScore
2016-01-31 18:21:13,378  INFO EventsManagerImpl:148   org.matsim.core.events.handler.BasicEventHandler
2016-01-31 18:21:13,378  INFO EventsManagerImpl:207     > org.matsim.api.core.v01.events.Event
2016-01-31 18:21:13,378  INFO EventsManagerImpl:156 
2016-01-31 18:21:13,378  INFO EventsManagerImpl:144 adding Event-Handler: org.matsim.core.scoring.EventsToScore
2016-01-31 18:21:13,379  INFO EventsManagerImpl:148   org.matsim.core.events.handler.BasicEventHandler
2016-01-31 18:21:13,379  INFO EventsManagerImpl:207     > org.matsim.api.core.v01.events.Event
2016-01-31 18:21:13,379  INFO EventsManagerImpl:156 
2016-01-31 18:21:13,379  INFO EventsManagerImpl:144 adding Event-Handler: org.matsim.analysis.LegHistogram
2016-01-31 18:21:13,379  INFO EventsManagerImpl:148   org.matsim.api.core.v01.events.handler.PersonDepartureEventHandler
2016-01-31 18:21:13,380  INFO EventsManagerImpl:207     > org.matsim.api.core.v01.events.PersonDepartureEvent
2016-01-31 18:21:13,380  INFO EventsManagerImpl:148   org.matsim.api.core.v01.events.handler.PersonArrivalEventHandler
2016-01-31 18:21:13,380  INFO EventsManagerImpl:207     > org.matsim.api.core.v01.events.PersonArrivalEvent
2016-01-31 18:21:13,380  INFO EventsManagerImpl:148   org.matsim.api.core.v01.events.handler.PersonStuckEventHandler
2016-01-31 18:21:13,380  INFO EventsManagerImpl:207     > org.matsim.api.core.v01.events.PersonStuckEvent
2016-01-31 18:21:13,380  INFO EventsManagerImpl:156 
2016-01-31 18:21:13,380  INFO EventsManagerImpl:144 adding Event-Handler: org.matsim.analysis.LegHistogram
2016-01-31 18:21:13,380  INFO EventsManagerImpl:148   org.matsim.api.core.v01.events.handler.PersonDepartureEventHandler
2016-01-31 18:21:13,381  INFO EventsManagerImpl:207     > org.matsim.api.core.v01.events.PersonDepartureEvent
2016-01-31 18:21:13,381  INFO EventsManagerImpl:148   org.matsim.api.core.v01.events.handler.PersonArrivalEventHandler
2016-01-31 18:21:13,381  INFO EventsManagerImpl:207     > org.matsim.api.core.v01.events.PersonArrivalEvent
2016-01-31 18:21:13,381  INFO EventsManagerImpl:148   org.matsim.api.core.v01.events.handler.PersonStuckEventHandler
2016-01-31 18:21:13,381  INFO EventsManagerImpl:207     > org.matsim.api.core.v01.events.PersonStuckEvent
2016-01-31 18:21:13,381  INFO EventsManagerImpl:156 
2016-01-31 18:21:13,381  INFO EventsManagerImpl:144 adding Event-Handler: org.matsim.analysis.CalcLegTimes
2016-01-31 18:21:13,381  INFO EventsManagerImpl:148   org.matsim.api.core.v01.events.handler.PersonDepartureEventHandler
2016-01-31 18:21:13,382  INFO EventsManagerImpl:207     > org.matsim.api.core.v01.events.PersonDepartureEvent
2016-01-31 18:21:13,382  INFO EventsManagerImpl:148   org.matsim.api.core.v01.events.handler.PersonArrivalEventHandler
2016-01-31 18:21:13,382  INFO EventsManagerImpl:207     > org.matsim.api.core.v01.events.PersonArrivalEvent
2016-01-31 18:21:13,382  INFO EventsManagerImpl:148   org.matsim.api.core.v01.events.handler.ActivityEndEventHandler
2016-01-31 18:21:13,382  INFO EventsManagerImpl:207     > org.matsim.api.core.v01.events.ActivityEndEvent
2016-01-31 18:21:13,382  INFO EventsManagerImpl:148   org.matsim.api.core.v01.events.handler.ActivityStartEventHandler
2016-01-31 18:21:13,382  INFO EventsManagerImpl:207     > org.matsim.api.core.v01.events.ActivityStartEvent
2016-01-31 18:21:13,382  INFO EventsManagerImpl:156 
2016-01-31 18:21:13,383  INFO EventsManagerImpl:144 adding Event-Handler: org.matsim.analysis.CalcLegTimes
2016-01-31 18:21:13,383  INFO EventsManagerImpl:148   org.matsim.api.core.v01.events.handler.PersonDepartureEventHandler
2016-01-31 18:21:13,383  INFO EventsManagerImpl:207     > org.matsim.api.core.v01.events.PersonDepartureEvent
2016-01-31 18:21:13,383  INFO EventsManagerImpl:148   org.matsim.api.core.v01.events.handler.PersonArrivalEventHandler
2016-01-31 18:21:13,383  INFO EventsManagerImpl:207     > org.matsim.api.core.v01.events.PersonArrivalEvent
2016-01-31 18:21:13,383  INFO EventsManagerImpl:148   org.matsim.api.core.v01.events.handler.ActivityEndEventHandler
2016-01-31 18:21:13,383  INFO EventsManagerImpl:207     > org.matsim.api.core.v01.events.ActivityEndEvent
2016-01-31 18:21:13,383  INFO EventsManagerImpl:148   org.matsim.api.core.v01.events.handler.ActivityStartEventHandler
2016-01-31 18:21:13,384  INFO EventsManagerImpl:207     > org.matsim.api.core.v01.events.ActivityStartEvent
2016-01-31 18:21:13,384  INFO EventsManagerImpl:156 
2016-01-31 18:21:14,763  INFO EventsManagerImpl:144 adding Event-Handler: org.matsim.core.scoring.EventsToScore
2016-01-31 18:21:14,764  INFO EventsManagerImpl:148   org.matsim.core.events.handler.BasicEventHandler
2016-01-31 18:21:14,764  INFO EventsManagerImpl:207     > org.matsim.api.core.v01.events.Event
2016-01-31 18:21:14,764  INFO EventsManagerImpl:156 
2016-01-31 18:21:14,764  INFO EventsManagerImpl:144 adding Event-Handler: org.matsim.core.scoring.EventsToScore
2016-01-31 18:21:14,764  INFO EventsManagerImpl:148   org.matsim.core.events.handler.BasicEventHandler
2016-01-31 18:21:14,764  INFO EventsManagerImpl:207     > org.matsim.api.core.v01.events.Event
2016-01-31 18:21:14,764  INFO EventsManagerImpl:156 
2016-01-31 18:21:14,766  INFO ControlerListenerManager:108 calling notifyStartup on org.matsim.counts.CountsControlerListener
2016-01-31 18:21:14,767  INFO ControlerListenerManager:108 calling notifyStartup on org.matsim.analysis.ScoreStatsControlerListener
2016-01-31 18:21:14,767  INFO ControlerListenerManager:111 all ControlerStartupListeners called.
2016-01-31 18:21:14,767  INFO ControlerUtils:57 config dump before iterations start
2016-01-31 18:21:14,776  INFO ControlerUtils:61 

<?xml version="1.0" encoding="UTF-8"?>
<!DOCTYPE config SYSTEM "http://www.matsim.org/files/dtd/config_v2.dtd">
<config>

<!-- ====================================================================== -->

	<module name="TimeAllocationMutator" >
		<param name="mutationAffectsDuration" value="true" />

		<!-- Default:1800.0; Defines how many seconds a time mutation can maximally shift a time. -->
		<param name="mutationRange" value="7200.0" />
	</module>

<!-- ====================================================================== -->

	<module name="changeLegMode" >
		<param name="ignoreCarAvailability" value="true" />
		<param name="modes" value="car,pt" />
	</module>

<!-- ====================================================================== -->

	<module name="controler" >

		<!-- Sets whether graphs showing some analyses should automatically be generated during the simulation. The generation of graphs usually takes a small amount of time that does not have any weight in big simulations, but add a significant overhead in smaller runs or in test cases where the graphical output is not even requested. -->
		<param name="createGraphs" value="true" />

		<!-- true if at the end of a run, plans, network, config etc should be dumped to a file -->
		<param name="dumpDataAtEnd" value="true" />

		<!-- Default=false;  -->
		<param name="enableLinkToLinkRouting" value="false" />

		<!-- Default=xml; Specifies the file format for writing events. Currently supported: txt, xml.
		Multiple values can be specified separated by commas (','). -->
		<param name="eventsFileFormat" value="xml" />

		<!-- Default=0;  -->
		<param name="firstIteration" value="0" />

		<!-- Default=1000;  -->
		<param name="lastIteration" value="20" />

		<!-- Defines which mobility simulation will be used. Currently supported: qsim JDEQSim 
		Depending on the chosen mobsim, you'll have to add additional config modules to configure the corresponding mobsim.
		For 'qsim', add a module 'qsim' to the config. -->
		<param name="mobsim" value="qsim" />

		<param name="outputDirectory" value="./output" />

		<!-- Possible values: failIfDirectoryExists, overwriteExistingFiles, deleteDirectoryIfExists -->
		<param name="overwriteFiles" value="failIfDirectoryExists" />

		<!-- The type of routing (least cost path) algorithm used, may have the values: Dijkstra, FastDijkstra, AStarLandmarks or FastAStarLandmarks -->
		<param name="routingAlgorithmType" value="Dijkstra" />

		<!-- An identifier for the current run which is used as prefix for output files and mentioned in output xml files etc. -->
		<param name="runId" value="null" />

		<!-- Comma-separated list of visualizer output file formats. `transims', `googleearth', and `otfvis'. -->
		<param name="snapshotFormat" value="" />

		<!-- iterationNumber % writeEventsInterval == 0 defines in which iterations events are written to a file. `0' disables events writing completely. -->
		<param name="writeEventsInterval" value="10" />

		<!-- iterationNumber % writePlansInterval == 0 defines (hopefully) in which iterations plans are written to a file. `0' disables plans writing completely.  Some plans in early iterations are always written -->
		<param name="writePlansInterval" value="1" />

		<!-- iterationNumber % writeSnapshotsInterval == 0 defines in which iterations snapshots are written to a file. `0' disables snapshots writing completely -->
		<param name="writeSnapshotsInterval" value="1" />
	</module>

<!-- ====================================================================== -->

	<module name="counts" >

		<!-- Transport modes that will be respected for the counts comparison. 'car' is default, which includes also bussed from the pt simulation module. Use this parameter in combination with 'filterModes' = true! -->
		<param name="analyzedModes" value="car" />

		<!-- Specifies over how many iterations the link volumes should be averaged that are used for the counts comparison. Use 1 or 0 to only use the link volumes of a single iteration. This values cannot be larger than the value specified for writeCountsInterval -->
		<param name="averageCountsOverIterations" value="5" />

		<!-- factor by which to re-scale the simulated values.  necessary when simulation runs with something different from 100%.  needs to be adapted manually -->
		<param name="countsScaleFactor" value="1.0" />

		<!-- distance to distanceFilterCenterNode to include counting stations. The unit of distance is the Euclidean distance implied by the coordinate system -->
		<param name="distanceFilter" value="null" />

		<!-- node id for center node of distance filter -->
		<param name="distanceFilterCenterNode" value="null" />

		<!-- If true, link counts from legs performed on modes not included in the 'analyzedModes' parameter are ignored. -->
		<param name="filterModes" value="false" />

		<!-- input file name to counts package -->
		<param name="inputCountsFile" value="null" />

		<!-- possible values: `html', `kml', `txt', `all' -->
		<param name="outputformat" value="txt" />

		<!-- Specifies how often the counts comparison should be calculated and written. -->
		<param name="writeCountsInterval" value="10" />
	</module>

<!-- ====================================================================== -->

	<module name="facilities" >
		<param name="inputFacilitiesFile" value="null" />
		<param name="inputFacilityAttributesFile" value="null" />
	</module>

<!-- ====================================================================== -->

	<module name="global" >
		<param name="coordinateSystem" value="EPSG:3115" />

		<!-- "global" number of threads.  This number is used, e.g., for replanning, but NOT in the mobsim.  This can typically be set to as many cores as you have available, or possibly even slightly more. -->
		<param name="numberOfThreads" value="8" />

		<param name="randomSeed" value="5399998864266990000" />
	</module>

<!-- ====================================================================== -->

	<module name="households" >
		<param name="inputFile" value="null" />
		<param name="inputHouseholdAttributesFile" value="null" />
	</module>

<!-- ====================================================================== -->

	<module name="linkStats" >

		<!-- Specifies over how many iterations the link volumes should be averaged that are used for the link statistics. Use 1 or 0 to only use the link volumes of a single iteration. This values cannot be larger than the value specified for writeLinkStatsInterval -->
		<param name="averageLinkStatsOverIterations" value="1" />

		<!-- Specifies how often the link stats should be calculated and written. Use 0 to disable the generation of link stats. -->
		<param name="writeLinkStatsInterval" value="1" />
	</module>

<!-- ====================================================================== -->

	<module name="network" >
		<param name="inputChangeEventsFile" value="null" />
		<param name="inputNetworkFile" value="./input/specialNetwork.xml" />
		<param name="laneDefinitionsFile" value="null" />
		<param name="timeVariantNetwork" value="false" />
	</module>

<!-- ====================================================================== -->

	<module name="parallelEventHandling" >

		<!-- Estimated number of events during mobsim run. An optional optimization hint for the framework. -->
		<param name="estimatedNumberOfEvents" value="null" />

		<!-- Number of threads for parallel events handler. 0 or null means the framework decides by itself. -->
		<param name="numberOfThreads" value="null" />

		<!-- If enabled, each event handler is assigned to its own thread. Note that enabling this feature disabled the numberOfThreads option! This feature is still experimental! -->
		<param name="oneThreadPerHandler" value="false" />

		<!-- If enabled, it is ensured that all events that are created during a time step of the mobility simulation are processed before the next time step is simulated. E.g. neccessary when within-day replanning is used. -->
		<param name="synchronizeOnSimSteps" value="true" />
	</module>

<!-- ====================================================================== -->

	<module name="planCalcScore" >

		<!-- logit model scale parameter. default: 1.  Has name and default value for historical reasons (see Bryan Raney's phd thesis). -->
		<param name="BrainExpBeta" value="2.0" />

		<param name="PathSizeLogitBeta" value="1.0" />

		<!-- fraction of iterations at which MSA score averaging is started. The matsim theory department suggests to use this together with switching off choice set innovation (where a similar switch exists), but it has not been tested yet. -->
		<param name="fractionOfIterationsToStartScoreMSA" value="null" />

		<!-- new_score = (1-learningRate)*old_score + learningRate * score_from_mobsim.  learning rates close to zero emulate score averaging, but slow down initial convergence -->
		<param name="learningRate" value="1.0" />

		<!-- There used to be a plateau between duration=0 and duration=zeroUtilityDuration. This caused durations to evolve to zero once they were below zeroUtilityDuration, causing problems.  Only use this switch if you need to be backwards compatible with some old results.  (changed nov'13) -->
		<param name="usingOldScoringBelowZeroUtilityDuration" value="false" />

		<!-- write a plans file in each iteration directory which contains what each agent actually did, and the score it received. -->
		<param name="writeExperiencedPlans" value="false" />

		<parameterset type="scoringParameters" >
			<param name="earlyDeparture" value="0.0" />
			<param name="lateArrival" value="0.0" />
			<param name="marginalUtilityOfMoney" value="1.0" />
			<param name="performing" value="6.0" />
			<param name="subpopulation" value="null" />
			<param name="utilityOfLineSwitch" value="-1.0" />
			<param name="waiting" value="0.0" />
			<param name="waitingPt" value="-6.0" />

			<parameterset type="activityParams" >
				<param name="activityType" value="h" />
				<param name="closingTime" value="undefined" />
				<param name="earliestEndTime" value="undefined" />
				<param name="latestStartTime" value="undefined" />
				<param name="minimalDuration" value="undefined" />
				<param name="openingTime" value="undefined" />
				<param name="priority" value="1.0" />
				<param name="scoringThisActivityAtAll" value="true" />
				<param name="typicalDuration" value="12:00:00" />

				<!-- method to compute score at typical duration.  Use uniform for backwards compatibility (all activities same score; higher proba to drop long acts). -->
				<param name="typicalDurationScoreComputation" value="uniform" />
			</parameterset>

			<parameterset type="activityParams" >
				<param name="activityType" value="w" />
				<param name="closingTime" value="undefined" />
				<param name="earliestEndTime" value="undefined" />
				<param name="latestStartTime" value="undefined" />
				<param name="minimalDuration" value="undefined" />
				<param name="openingTime" value="undefined" />
				<param name="priority" value="1.0" />
				<param name="scoringThisActivityAtAll" value="true" />
				<param name="typicalDuration" value="08:00:00" />

				<!-- method to compute score at typical duration.  Use uniform for backwards compatibility (all activities same score; higher proba to drop long acts). -->
				<param name="typicalDurationScoreComputation" value="uniform" />
			</parameterset>

			<parameterset type="activityParams" >
				<param name="activityType" value="pt interaction" />
				<param name="closingTime" value="00:00:00" />
				<param name="earliestEndTime" value="undefined" />
				<param name="latestStartTime" value="undefined" />
				<param name="minimalDuration" value="undefined" />
				<param name="openingTime" value="00:00:00" />
				<param name="priority" value="1.0" />
				<param name="scoringThisActivityAtAll" value="true" />
				<param name="typicalDuration" value="00:02:00" />

				<!-- method to compute score at typical duration.  Use uniform for backwards compatibility (all activities same score; higher proba to drop long acts). -->
				<param name="typicalDurationScoreComputation" value="uniform" />
			</parameterset>

			<parameterset type="modeParams" >

				<!-- [utils] alternative-specific constant.  no guarantee that this is used anywhere. default=0 to be backwards compatible for the time being -->
				<param name="constant" value="0.0" />

				<!-- [utils/m] utility of walking per m, normally negative.  this is on top of the time (dis)utility. -->
				<param name="marginalUtilityOfDistance_util_m" value="0.0" />

				<!-- [utils/hr] additional marginal utility of traveling.  normally negative.  this comes on top of the opportunity cost of time -->
				<param name="marginalUtilityOfTraveling_util_hr" value="0.0" />

				<param name="mode" value="car" />
				<param name="monetaryDistanceRate" value="0.0" />
			</parameterset>

			<parameterset type="modeParams" >

				<!-- [utils] alternative-specific constant.  no guarantee that this is used anywhere. default=0 to be backwards compatible for the time being -->
				<param name="constant" value="0.0" />

				<!-- [utils/m] utility of walking per m, normally negative.  this is on top of the time (dis)utility. -->
				<param name="marginalUtilityOfDistance_util_m" value="0.0" />

				<!-- [utils/hr] additional marginal utility of traveling.  normally negative.  this comes on top of the opportunity cost of time -->
				<param name="marginalUtilityOfTraveling_util_hr" value="-6.0" />

				<param name="mode" value="pt" />
				<param name="monetaryDistanceRate" value="0.0" />
			</parameterset>

			<parameterset type="modeParams" >

				<!-- [utils] alternative-specific constant.  no guarantee that this is used anywhere. default=0 to be backwards compatible for the time being -->
				<param name="constant" value="0.0" />

				<!-- [utils/m] utility of walking per m, normally negative.  this is on top of the time (dis)utility. -->
				<param name="marginalUtilityOfDistance_util_m" value="0.0" />

				<!-- [utils/hr] additional marginal utility of traveling.  normally negative.  this comes on top of the opportunity cost of time -->
				<param name="marginalUtilityOfTraveling_util_hr" value="-6.0" />

				<param name="mode" value="walk" />
				<param name="monetaryDistanceRate" value="0.0" />
			</parameterset>

			<parameterset type="modeParams" >

				<!-- [utils] alternative-specific constant.  no guarantee that this is used anywhere. default=0 to be backwards compatible for the time being -->
				<param name="constant" value="0.0" />

				<!-- [utils/m] utility of walking per m, normally negative.  this is on top of the time (dis)utility. -->
				<param name="marginalUtilityOfDistance_util_m" value="0.0" />

				<!-- [utils/hr] additional marginal utility of traveling.  normally negative.  this comes on top of the opportunity cost of time -->
				<param name="marginalUtilityOfTraveling_util_hr" value="-6.0" />

				<param name="mode" value="bike" />
				<param name="monetaryDistanceRate" value="0.0" />
			</parameterset>

			<parameterset type="modeParams" >

				<!-- [utils] alternative-specific constant.  no guarantee that this is used anywhere. default=0 to be backwards compatible for the time being -->
				<param name="constant" value="0.0" />

				<!-- [utils/m] utility of walking per m, normally negative.  this is on top of the time (dis)utility. -->
				<param name="marginalUtilityOfDistance_util_m" value="0.0" />

				<!-- [utils/hr] additional marginal utility of traveling.  normally negative.  this comes on top of the opportunity cost of time -->
				<param name="marginalUtilityOfTraveling_util_hr" value="-6.0" />

				<param name="mode" value="other" />
				<param name="monetaryDistanceRate" value="0.0" />
			</parameterset>
		</parameterset>
	</module>

<!-- ====================================================================== -->

	<module name="plans" >

		<!-- String: minOfDurationAndEndTime tryEndTimeThenDuration endTimeOnly. Anything besides minOfDurationAndEndTime will internally use a different (simpler) version of the TimeAllocationMutator. -->
		<param name="activityDurationInterpretation" value="tryEndTimeThenDuration" />

		<!-- Path to a file containing person attributes (required file format: ObjectAttributes). -->
		<param name="inputPersonAttributesFile" value="null" />

		<param name="inputPlansFile" value="./input/plans_sitm_cali_01.04.2014_final.xml" />

		<!-- Defines how routes are stored in memory. Currently supported: LinkNetworkRoute, CompressedNetworkRoute. -->
		<param name="networkRouteType" value="LinkNetworkRoute" />

		<!-- (not tested) will remove plan attributes that are presumably not used, such as activityStartTime. default=false -->
		<param name="removingUnnecessaryPlanAttributes" value="false" />

		<!-- Name of the (Object)Attribute defining the subpopulation to which pertains a Person (as freight, through traffic, etc.). The attribute must be of String type. -->
		<param name="subpopulationAttributeName" value="subpopulation" />
	</module>

<!-- ====================================================================== -->

	<module name="planscalcroute" >

		<!-- All the modes for which the router is supposed to generate network routes (like car) -->
		<param name="networkModes" value="car" />

		<parameterset type="teleportedModeParameters" >
			<param name="beelineDistanceFactor" value="1.3" />
			<param name="mode" value="bike" />

			<!-- Free-speed factor for a teleported mode. Travel time = teleportedModeFreespeedFactor * <freespeed car travel time>. Insert a line like this for every such mode. Please do not set teleportedModeFreespeedFactor as well as teleportedModeSpeed for the same mode, but if you do, +teleportedModeFreespeedFactor wins over teleportedModeSpeed. -->
			<param name="teleportedModeFreespeedFactor" value="null" />

			<!-- Speed for a teleported mode. Travel time = (<beeline distance> * beelineDistanceFactor) / teleportedModeSpeed. Insert a line like this for every such mode. -->
			<param name="teleportedModeSpeed" value="4.166666666666667" />
		</parameterset>

		<parameterset type="teleportedModeParameters" >
			<param name="beelineDistanceFactor" value="1.3" />
			<param name="mode" value="walk" />

			<!-- Free-speed factor for a teleported mode. Travel time = teleportedModeFreespeedFactor * <freespeed car travel time>. Insert a line like this for every such mode. Please do not set teleportedModeFreespeedFactor as well as teleportedModeSpeed for the same mode, but if you do, +teleportedModeFreespeedFactor wins over teleportedModeSpeed. -->
			<param name="teleportedModeFreespeedFactor" value="null" />

			<!-- Speed for a teleported mode. Travel time = (<beeline distance> * beelineDistanceFactor) / teleportedModeSpeed. Insert a line like this for every such mode. -->
			<param name="teleportedModeSpeed" value="0.8333333333333333" />
		</parameterset>

		<parameterset type="teleportedModeParameters" >
			<param name="beelineDistanceFactor" value="1.3" />
			<param name="mode" value="undefined" />

			<!-- Free-speed factor for a teleported mode. Travel time = teleportedModeFreespeedFactor * <freespeed car travel time>. Insert a line like this for every such mode. Please do not set teleportedModeFreespeedFactor as well as teleportedModeSpeed for the same mode, but if you do, +teleportedModeFreespeedFactor wins over teleportedModeSpeed. -->
			<param name="teleportedModeFreespeedFactor" value="null" />

			<!-- Speed for a teleported mode. Travel time = (<beeline distance> * beelineDistanceFactor) / teleportedModeSpeed. Insert a line like this for every such mode. -->
			<param name="teleportedModeSpeed" value="13.88888888888889" />
		</parameterset>

		<parameterset type="teleportedModeParameters" >
			<param name="beelineDistanceFactor" value="1.3" />
			<param name="mode" value="ride" />

			<!-- Free-speed factor for a teleported mode. Travel time = teleportedModeFreespeedFactor * <freespeed car travel time>. Insert a line like this for every such mode. Please do not set teleportedModeFreespeedFactor as well as teleportedModeSpeed for the same mode, but if you do, +teleportedModeFreespeedFactor wins over teleportedModeSpeed. -->
			<param name="teleportedModeFreespeedFactor" value="1.0" />

			<!-- Speed for a teleported mode. Travel time = (<beeline distance> * beelineDistanceFactor) / teleportedModeSpeed. Insert a line like this for every such mode. -->
			<param name="teleportedModeSpeed" value="null" />
		</parameterset>

		<parameterset type="teleportedModeParameters" >
			<param name="beelineDistanceFactor" value="1.3" />
			<param name="mode" value="pt" />

			<!-- Free-speed factor for a teleported mode. Travel time = teleportedModeFreespeedFactor * <freespeed car travel time>. Insert a line like this for every such mode. Please do not set teleportedModeFreespeedFactor as well as teleportedModeSpeed for the same mode, but if you do, +teleportedModeFreespeedFactor wins over teleportedModeSpeed. -->
			<param name="teleportedModeFreespeedFactor" value="2.0" />

			<!-- Speed for a teleported mode. Travel time = (<beeline distance> * beelineDistanceFactor) / teleportedModeSpeed. Insert a line like this for every such mode. -->
			<param name="teleportedModeSpeed" value="null" />
		</parameterset>
	</module>

<!-- ====================================================================== -->

	<module name="ptCounts" >

		<!-- factor by which to re-scale the simulated values.  necessary when simulation runs with something different from 100%.  needs to be adapted manually -->
		<param name="countsScaleFactor" value="1.0" />

		<!-- distance to distanceFilterCenterNode to include counting stations. The unit of distance is the Euclidean distance implied by the coordinate system -->
		<param name="distanceFilter" value="null" />

		<!-- node id for center node of distance filter -->
		<param name="distanceFilterCenterNode" value="null" />

		<!-- input file containing the alighting (getting off) counts for pt -->
		<param name="inputAlightCountsFile" value="null" />

		<!-- input file containing the boarding (getting on) counts for pt -->
		<param name="inputBoardCountsFile" value="null" />

		<!-- input file containing the occupancy counts for pt -->
		<param name="inputOccupancyCountsFile" value="null" />

		<!-- possible values: `html', `kml', `txt', `all' -->
		<param name="outputformat" value="null" />

		<!-- every how many iterations (starting with 0) counts comparisons are generated -->
		<param name="ptCountsInterval" value="10" />
	</module>

<!-- ====================================================================== -->

	<module name="qsim" >
		<param name="endTime" value="28:00:00" />
		<param name="flowCapacityFactor" value="1.0" />

		<!-- decides if waiting vehicles enter the network after or before the already driving vehicles were moved. Default: false -->
		<param name="insertingWaitingVehiclesBeforeDrivingVehicles" value="false" />

		<!-- If link dynamics is set as SeepageQ, set to false if all seep modes should perform seepage. Default is true (better option). -->
		<param name="isRestrictingSeepage" value="true" />

		<!-- If link dynamics is set as SeepageQ, set to true if seep mode do not consumes any space on the link. Default is false. -->
		<param name="isSeepModeStorageFree" value="false" />

		<!-- default: FIFO; options: FIFO PassingQ SeepageQ -->
		<param name="linkDynamics" value="PassingQ" />

		<!-- The (initial) width of the links of the network. Use positive floating point values. -->
		<param name="linkWidth" value="30.0" />

		<!-- [comma-separated list] Defines which modes are congested modes. Technically, these are the modes that the departure handler of the netsimengine handles.  Effective cell size, effective lane width, flow capacity factor, and storage capacity factor need to be set with diligence.  Need to be vehicular modes to make sense. -->
		<param name="mainMode" value="car" />

		<!-- Shortens a link in the visualization, i.e. its start and end point are moved into towards the center. Does not affect traffic flow.  -->
		<param name="nodeOffset" value="0.0" />

		<!-- Number of threads used for the QSim.  Note that this setting is independent from the "global" threads setting.  In contrast to earlier versions, the non-parallel special version is no longer there. -->
		<param name="numberOfThreads" value="1" />

		<!-- Boolean. `true': stuck vehicles are removed, aborting the plan; `false': stuck vehicles are forced into the next link. `false' is probably the better choice. -->
		<param name="removeStuckVehicles" value="false" />

		<!-- If link dynamics is set as SeepageQ, set a seep mode. Default is bike. -->
		<param name="seepMode" value="bike" />

		<!-- Options: nullmaxOfStarttimeAndEarliestActivityEnd onlyUseStarttime  -->
		<param name="simStarttimeInterpretation" value="maxOfStarttimeAndEarliestActivityEnd" />

		<!-- snapshotStyle. One of: equiDist queue withHoles  -->
		<param name="snapshotStyle" value="equiDist" />

		<param name="snapshotperiod" value="00:00:00" />
		<param name="startTime" value="00:00:00" />
		<param name="storageCapacityFactor" value="1.0" />

		<!-- time in seconds.  Time after which the frontmost vehicle on a link is called `stuck' if it does not move. -->
		<param name="stuckTime" value="10.0" />

		<param name="timeStepSize" value="00:00:01" />

		<!-- options: nullqueue withHoles  -->
		<param name="trafficDynamics" value="queue" />

		<!-- [DEPRECATED, usevehiclesSource instead]  If this is true, we do not expect (or use) vehicles from the vehicles database, but create vehicles on the fly with default properties. -->
		<param name="useDefaultVehicles" value="true" />

		<!-- Set this parameter to true if lanes should be used, false if not. -->
		<param name="useLanes" value="false" />

		<!-- If a route does not reference a vehicle, agents will use the vehicle with the same id as their own. -->
		<param name="usePersonIdForMissingVehicleId" value="true" />

		<!-- normally, the qsim accumulates fractional flows up to one flow unit.  This is impractical with  with smaller PCEs.  If this switch is set to true, cars can enter a link if the accumulated flow is >=0, and the accumulated flow can go into negative.  Will probably become the default eventually. -->
		<param name="usingFastCapacityUpdate" value="false" />

		<!-- if the qsim should use as many runners as there are threads (Christoph's dissertation version) or more of them, together with a thread pool (seems to be faster in some situations, but is not tested). -->
		<param name="usingThreadpool" value="true" />

		<!-- Defines what happens if an agent wants to depart, but the specified vehicle is not available. One of: nullteleport wait exception  -->
		<param name="vehicleBehavior" value="wait" />

		<!-- If vehicles should all be the same default vehicle, or come from the vehicles file, or something else.  Possible values:  defaultVehicle fromVehiclesData -->
		<param name="vehiclesSource" value="defaultVehicle" />
	</module>

<!-- ====================================================================== -->

	<module name="scenario" >
	</module>

<!-- ====================================================================== -->

	<module name="strategy" >

		<!-- the external executable will be called with a config file as argument.  This is the pathname to a possible skeleton config, to which additional information will be added.  Can be null. -->
		<param name="ExternalExeConfigTemplate" value="null" />

		<!-- time out value (in seconds) after which matsim will consider the external strategy as failed -->
		<param name="ExternalExeTimeOut" value="3600" />

		<!-- root directory for temporary files generated by the external executable. Provided as a service; I don't think this is used by MATSim. -->
		<param name="ExternalExeTmpFileRootDir" value="null" />

		<!-- fraction of iterations where innovative strategies are switched off.  Something link 0.8 should be good.  E.g. if you run from iteration 400 to iteration 500, innovation is switched off at iteration 480 -->
		<param name="fractionOfIterationsToDisableInnovation" value="Infinity" />

		<!-- maximum number of plans per agent.  ``0'' means ``infinity''.  Currently (2010), ``5'' is a good number -->
		<param name="maxAgentPlanMemorySize" value="5" />

		<!-- name of PlanSelector for plans removal.  Possible defaults: WorstPlanSelector SelectRandom SelectExpBetaForRemoval ChangeExpBetaForRemoval PathSizeLogitSelectorForRemoval . The current default, WorstPlanSelector is not a good choice from a discrete choice theoretical perspective. Alternatives, however, have not been systematically tested. kai, feb'12 -->
		<param name="planSelectorForRemoval" value="WorstPlanSelector" />

		<parameterset type="strategysettings" >

			<!-- iteration after which strategy will be disabled.  most useful for ``innovative'' strategies (new routes, new times, ...). Normally, better use fractionOfIterationsToDisableInnovation -->
			<param name="disableAfterIteration" value="-1" />

			<!-- path to external executable (if applicable) -->
			<param name="executionPath" value="null" />

			<!-- name of strategy.  Possible default names: KeepLastSelected BestScore ChangeExpBeta SelectExpBeta SelectRandom SelectPathSizeLogit  (selectors), ReRoute TimeAllocationMutator ChangeLegMode TimeAllocationMutator_ReRoute ChangeSingleLegMode ChangeSingleTripMode SubtourModeChoice ChangeTripMode TripSubtourModeChoice  (innovative strategies). -->
			<param name="strategyName" value="ChangeExpBeta" />

			<!-- subpopulation to which the strategy applies. "null" refers to the default population, that is, the set of persons for which no explicit subpopulation is defined (ie no subpopulation attribute) -->
			<param name="subpopulation" value="null" />

			<!-- weight of a strategy: for each agent, a strategy will be selected with a probability proportional to its weight -->
			<param name="weight" value="0.8" />
		</parameterset>

		<parameterset type="strategysettings" >

			<!-- iteration after which strategy will be disabled.  most useful for ``innovative'' strategies (new routes, new times, ...). Normally, better use fractionOfIterationsToDisableInnovation -->
			<param name="disableAfterIteration" value="-1" />

			<!-- path to external executable (if applicable) -->
			<param name="executionPath" value="null" />

			<!-- name of strategy.  Possible default names: KeepLastSelected BestScore ChangeExpBeta SelectExpBeta SelectRandom SelectPathSizeLogit  (selectors), ReRoute TimeAllocationMutator ChangeLegMode TimeAllocationMutator_ReRoute ChangeSingleLegMode ChangeSingleTripMode SubtourModeChoice ChangeTripMode TripSubtourModeChoice  (innovative strategies). -->
			<param name="strategyName" value="ReRoute" />

			<!-- subpopulation to which the strategy applies. "null" refers to the default population, that is, the set of persons for which no explicit subpopulation is defined (ie no subpopulation attribute) -->
			<param name="subpopulation" value="null" />

			<!-- weight of a strategy: for each agent, a strategy will be selected with a probability proportional to its weight -->
			<param name="weight" value="0.1" />
		</parameterset>

		<parameterset type="strategysettings" >

			<!-- iteration after which strategy will be disabled.  most useful for ``innovative'' strategies (new routes, new times, ...). Normally, better use fractionOfIterationsToDisableInnovation -->
			<param name="disableAfterIteration" value="-1" />

			<!-- path to external executable (if applicable) -->
			<param name="executionPath" value="null" />

			<!-- name of strategy.  Possible default names: KeepLastSelected BestScore ChangeExpBeta SelectExpBeta SelectRandom SelectPathSizeLogit  (selectors), ReRoute TimeAllocationMutator ChangeLegMode TimeAllocationMutator_ReRoute ChangeSingleLegMode ChangeSingleTripMode SubtourModeChoice ChangeTripMode TripSubtourModeChoice  (innovative strategies). -->
			<param name="strategyName" value="TimeAllocationMutator" />

			<!-- subpopulation to which the strategy applies. "null" refers to the default population, that is, the set of persons for which no explicit subpopulation is defined (ie no subpopulation attribute) -->
			<param name="subpopulation" value="null" />

			<!-- weight of a strategy: for each agent, a strategy will be selected with a probability proportional to its weight -->
			<param name="weight" value="0.1" />
		</parameterset>
	</module>

<!-- ====================================================================== -->

	<module name="subtourModeChoice" >

		<!-- Defines the chain-based modes, seperated by commas -->
		<param name="chainBasedModes" value="car,bike" />

		<!-- Defines whether car availability must be considered or not. A agent has no car only if it has no license, or never access to a car -->
		<param name="considerCarAvailability" value="false" />

		<!-- Defines all the modes available, including chain-based modes, seperated by commas -->
		<param name="modes" value="car,pt,bike,walk" />
	</module>

<!-- ====================================================================== -->

	<module name="transit" >

		<!-- Optional input file containing additional attributes for transit lines, stored as ObjectAttributes. -->
		<param name="transitLinesAttributesFile" value="null" />

		<!-- Comma-separated list of transportation modes that are handled as transit. Defaults to 'pt'. -->
		<param name="transitModes" value="pt" />

		<!-- Input file containing the transit schedule to be simulated. -->
		<param name="transitScheduleFile" value="./input/transitSchedule_MAX_VEHICLES.xml" />

		<!-- Optional input file containing additional attributes for transit stop facilities, stored as ObjectAttributes. -->
		<param name="transitStopsAttributesFile" value="null" />

		<!-- Set this parameter to true if transit should be simulated, false if not. -->
		<param name="useTransit" value="true" />

		<!-- Input file containing the vehicles used by the departures in the transit schedule. -->
		<param name="vehiclesFile" value="./input/transitVehicles_MAX_VEHICLES.xml" />
	</module>

<!-- ====================================================================== -->

	<module name="transitRouter" >

		<!-- additional time the router allocates when a line switch happens. Can be interpreted as a 'safety' time that agents need to safely transfer from one line to another -->
		<param name="additionalTransferTime" value="0.0" />

		<!-- step size to increase searchRadius if no stops are found -->
		<param name="extensionRadius" value="200.0" />

		<!-- maximum beeline distance between stops that agents could transfer to by walking -->
		<param name="maxBeelineWalkConnectionDistance" value="100.0" />

		<!-- the radius in which stop locations are searched, given a start or target coordinate -->
		<param name="searchRadius" value="500.0" />
	</module>

<!-- ====================================================================== -->

	<module name="travelTimeCalculator" >

		<!-- Transport modes that will be respected by the travel time collector. 'car' is default, which includes also bussed from the pt simulation module. Use this parameter in combination with 'filterModes' = true! -->
		<param name="analyzedModes" value="car" />

		<param name="calculateLinkToLinkTravelTimes" value="false" />
		<param name="calculateLinkTravelTimes" value="true" />

		<!-- If true, link travel times from legs performed on modes not included in the 'analyzedModes' parameter are ignored. -->
		<param name="filterModes" value="false" />

		<!-- How to deal with congested time bins that have no link entry events. `optimistic' assumes free speed (too optimistic); 'experimental_LastMile' is experimental and probably too pessimistic. -->
		<param name="travelTimeAggregator" value="optimistic" />

		<!-- The size of the time bin (in sec) into which the link travel times are aggregated for the router -->
		<param name="travelTimeBinSize" value="900" />

		<!-- possible values: nullTravelTimeCalculatorArray TravelTimeCalculatorHashMap  -->
		<param name="travelTimeCalculator" value="TravelTimeCalculatorArray" />

		<!-- How to deal with link entry times at different positions during the time bin. Currently supported: average, linearinterpolation -->
		<param name="travelTimeGetter" value="average" />
	</module>

<!-- ====================================================================== -->

	<module name="vehicles" >
		<param name="vehiclesFile" value="null" />
	</module>

<!-- ====================================================================== -->

	<module name="vspExperimental" >

		<!-- (do not use) Set this filename of MZ05 daily analysis -->
		<param name="inputMZ05File" value="" />

		<!-- (do not use except of you have to) There was a problem with pt interaction scoring.  Some people solved it by overwriting the parameters of the pt interaction activity type.  Doing this now throws an Exception.  If you still insist on doing this, set the following to true. -->
		<param name="isAbleToOverwritePtInteractionParams" value="false" />

		<param name="isGeneratingBoardingDeniedEvent" value="false" />

		<!-- if an approximation of the opportunity cost of time is included into the radius calculation for location choice.`true' will be faster, but it is an approximation.  Default is `true'; `false' is available for backwards compatibility. -->
		<param name="isUsingOpportunityCostOfTimeForLocationChoice" value="true" />

		<param name="logitScaleParamForPlansRemoval" value="1.0" />

		<!-- Options: | ignore | info | warn | abort | .  When violating VSP defaults, this results in nothing, logfile infos, logfile warnings, or aborts.  Members of VSP should use `abort' or talk to kai. -->
		<param name="vspDefaultsCheckingLevel" value="ignore" />

		<!-- if true then writes output_events in output directory.  default is `false'. Will only work when lastIteration is multiple of events writing interval -->
		<param name="writingOutputEvents" value="false" />
	</module>

<!-- ====================================================================== -->

</config>

[...]
2016-01-31 18:39:29,610  INFO MobsimListenerManager:53   assigned class org.matsim.core.mobsim.framework.listeners.MobsimListener to interface org.matsim.core.mobsim.framework.listeners.MobsimBeforeCleanupListener
2016-01-31 18:39:29,610  INFO MobsimListenerManager:53   assigned class org.matsim.core.mobsim.framework.listeners.MobsimListener to interface org.matsim.core.mobsim.framework.listeners.MobsimListener
2016-01-31 18:39:29,610  INFO MobsimListenerManager:53   assigned class org.matsim.core.mobsim.framework.listeners.MobsimListener to interface org.matsim.core.mobsim.framework.listeners.MobsimAfterSimStepListener
2016-01-31 18:39:29,610  INFO MobsimListenerManager:53   assigned class org.matsim.core.mobsim.framework.listeners.MobsimListener to interface org.matsim.core.mobsim.framework.listeners.MobsimInitializedListener
2016-01-31 18:39:29,611  INFO ReconstructingUmlaufBuilder:112 Generating UmlaufStuecke
2016-01-31 18:39:30,054  INFO QNetsimEngine:562 Assigned 2018 nodes and 2659 links to QSimEngineRunner #0
2016-01-31 18:39:30,156  INFO QNetsimEngine:388 SIMULATION (QNetsimEngine) AT 00:34:19 : #links=0 #nodes=0
2016-01-31 18:39:30,156  INFO QSim:462 SIMULATION (NEW QSim) AT 00:34:19 : #Veh=189633 lost=0 simT=0.0s realT=0s; (s/r): 0.0
2016-01-31 18:39:30,156  INFO Gbl:52 used RAM: 1353177640B = 1321462kB = 1290MB  free: 365438424B = 348MB  total: 1718616064B = 1639MB
2016-01-31 18:39:30,201  INFO QNetsimEngine:388 SIMULATION (QNetsimEngine) AT 01:00:00 : #links=0 #nodes=0
2016-01-31 18:39:30,201  INFO QSim:462 SIMULATION (NEW QSim) AT 01:00:00 : #Veh=189633 lost=0 simT=1541.0s realT=0s; (s/r): Infinity
2016-01-31 18:39:30,201  INFO Gbl:52 used RAM: 1353177640B = 1321462kB = 1290MB  free: 365438424B = 348MB  total: 1718616064B = 1639MB
2016-01-31 18:39:30,294  INFO QNetsimEngine:388 SIMULATION (QNetsimEngine) AT 02:00:00 : #links=0 #nodes=0
2016-01-31 18:39:30,294  INFO QSim:462 SIMULATION (NEW QSim) AT 02:00:00 : #Veh=189632 lost=0 simT=5141.0s realT=0s; (s/r): Infinity
2016-01-31 18:39:30,294  INFO Gbl:52 used RAM: 1357859544B = 1326034kB = 1294MB  free: 360756520B = 344MB  total: 1718616064B = 1639MB
2016-01-31 18:39:30,385  INFO QNetsimEngine:388 SIMULATION (QNetsimEngine) AT 03:00:00 : #links=0 #nodes=0
2016-01-31 18:39:30,385  INFO QSim:462 SIMULATION (NEW QSim) AT 03:00:00 : #Veh=189623 lost=0 simT=8741.0s realT=0s; (s/r): Infinity
2016-01-31 18:39:30,385  INFO Gbl:52 used RAM: 1357859544B = 1326034kB = 1294MB  free: 360756520B = 344MB  total: 1718616064B = 1639MB
2016-01-31 18:39:30,481  INFO QNetsimEngine:388 SIMULATION (QNetsimEngine) AT 04:00:00 : #links=0 #nodes=0
2016-01-31 18:39:30,482  INFO QSim:462 SIMULATION (NEW QSim) AT 04:00:00 : #Veh=189579 lost=0 simT=12341.0s realT=0s; (s/r): Infinity
2016-01-31 18:39:30,482  INFO Gbl:52 used RAM: 1359439496B = 1327577kB = 1296MB  free: 359176568B = 342MB  total: 1718616064B = 1639MB
2016-01-31 18:39:30,601  INFO QNetsimEngine:388 SIMULATION (QNetsimEngine) AT 05:00:00 : #links=3 #nodes=0
2016-01-31 18:39:30,601  INFO QSim:462 SIMULATION (NEW QSim) AT 05:00:00 : #Veh=189427 lost=0 simT=15941.0s realT=0s; (s/r): Infinity
2016-01-31 18:39:30,601  INFO Gbl:52 used RAM: 1371231120B = 1339092kB = 1307MB  free: 347384944B = 331MB  total: 1718616064B = 1639MB
2016-01-31 18:39:31,210  INFO QNetsimEngine:388 SIMULATION (QNetsimEngine) AT 06:00:00 : #links=22 #nodes=3
2016-01-31 18:39:31,210  INFO QSim:462 SIMULATION (NEW QSim) AT 06:00:00 : #Veh=186461 lost=0 simT=19541.0s realT=1s; (s/r): 19541.0
2016-01-31 18:39:31,210  INFO Gbl:52 used RAM: 1457221016B = 1423067kB = 1389MB  free: 261395048B = 249MB  total: 1718616064B = 1639MB
2016-01-31 18:39:32,331  INFO QNetsimEngine:388 SIMULATION (QNetsimEngine) AT 07:00:00 : #links=33 #nodes=2
2016-01-31 18:39:32,331  INFO QSim:462 SIMULATION (NEW QSim) AT 07:00:00 : #Veh=180922 lost=0 simT=23141.0s realT=2s; (s/r): 11570.5
2016-01-31 18:39:32,331  INFO Gbl:52 used RAM: 1441715312B = 1407925kB = 1374MB  free: 437332880B = 417MB  total: 1879048192B = 1792MB
2016-01-31 18:39:34,927  INFO QNetsimEngine:388 SIMULATION (QNetsimEngine) AT 08:00:00 : #links=34 #nodes=2
2016-01-31 18:39:34,927  INFO QSim:462 SIMULATION (NEW QSim) AT 08:00:00 : #Veh=174090 lost=0 simT=26741.0s realT=5s; (s/r): 5348.2
2016-01-31 18:39:34,927  INFO Gbl:52 used RAM: 1420278928B = 1386991kB = 1354MB  free: 253248368B = 241MB  total: 1673527296B = 1596MB
2016-01-31 18:39:36,017  INFO QNetsimEngine:388 SIMULATION (QNetsimEngine) AT 09:00:00 : #links=26 #nodes=2
2016-01-31 18:39:36,017  INFO QSim:462 SIMULATION (NEW QSim) AT 09:00:00 : #Veh=167973 lost=0 simT=30341.0s realT=6s; (s/r): 5056.833333333333
2016-01-31 18:39:36,018  INFO Gbl:52 used RAM: 1588305360B = 1551079kB = 1514MB  free: 85221936B = 81MB  total: 1673527296B = 1596MB
2016-01-31 18:39:39,221  INFO QNetsimEngine:388 SIMULATION (QNetsimEngine) AT 10:00:00 : #links=22 #nodes=1
2016-01-31 18:39:39,221  INFO QSim:462 SIMULATION (NEW QSim) AT 10:00:00 : #Veh=162059 lost=0 simT=33941.0s realT=9s; (s/r): 3771.222222222222
2016-01-31 18:39:39,222  INFO Gbl:52 used RAM: 1537486696B = 1501451kB = 1466MB  free: 136040600B = 129MB  total: 1673527296B = 1596MB
2016-01-31 18:39:44,249  INFO QNetsimEngine:388 SIMULATION (QNetsimEngine) AT 11:00:00 : #links=24 #nodes=3
2016-01-31 18:39:44,249  INFO QSim:462 SIMULATION (NEW QSim) AT 11:00:00 : #Veh=156279 lost=0 simT=37541.0s realT=14s; (s/r): 2681.5
2016-01-31 18:39:44,249  INFO Gbl:52 used RAM: 1484528720B = 1449735kB = 1415MB  free: 188998576B = 180MB  total: 1673527296B = 1596MB
2016-01-31 18:39:51,977  INFO QNetsimEngine:388 SIMULATION (QNetsimEngine) AT 12:00:00 : #links=22 #nodes=1
2016-01-31 18:39:51,977  INFO QSim:462 SIMULATION (NEW QSim) AT 12:00:00 : #Veh=150308 lost=0 simT=41141.0s realT=22s; (s/r): 1870.0454545454545
2016-01-31 18:39:51,977  INFO Gbl:52 used RAM: 1439527624B = 1405788kB = 1372MB  free: 233999672B = 223MB  total: 1673527296B = 1596MB
2016-01-31 18:39:53,324  INFO QNetsimEngine:388 SIMULATION (QNetsimEngine) AT 13:00:00 : #links=23 #nodes=2
2016-01-31 18:39:53,324  INFO QSim:462 SIMULATION (NEW QSim) AT 13:00:00 : #Veh=144053 lost=0 simT=44741.0s realT=23s; (s/r): 1945.2608695652175
2016-01-31 18:39:53,324  INFO Gbl:52 used RAM: 1620842728B = 1582854kB = 1545MB  free: 52684568B = 50MB  total: 1673527296B = 1596MB
2016-01-31 18:40:00,013  INFO QNetsimEngine:388 SIMULATION (QNetsimEngine) AT 14:00:00 : #links=22 #nodes=2
2016-01-31 18:40:00,014  INFO QSim:462 SIMULATION (NEW QSim) AT 14:00:00 : #Veh=137583 lost=0 simT=48341.0s realT=30s; (s/r): 1611.3666666666666
2016-01-31 18:40:00,014  INFO Gbl:52 used RAM: 1601988992B = 1564442kB = 1527MB  free: 71538304B = 68MB  total: 1673527296B = 1596MB
2016-01-31 18:40:07,209  INFO QNetsimEngine:388 SIMULATION (QNetsimEngine) AT 15:00:00 : #links=20 #nodes=2
2016-01-31 18:40:07,210  INFO QSim:462 SIMULATION (NEW QSim) AT 15:00:00 : #Veh=130660 lost=0 simT=51941.0s realT=37s; (s/r): 1403.8108108108108
2016-01-31 18:40:07,210  INFO Gbl:52 used RAM: 1609487008B = 1571764kB = 1534MB  free: 64040288B = 61MB  total: 1673527296B = 1596MB
2016-01-31 18:40:20,777  INFO QNetsimEngine:388 SIMULATION (QNetsimEngine) AT 16:00:00 : #links=21 #nodes=1
2016-01-31 18:40:20,777  INFO QSim:462 SIMULATION (NEW QSim) AT 16:00:00 : #Veh=123221 lost=0 simT=55541.0s realT=51s; (s/r): 1089.0392156862745
2016-01-31 18:40:20,777  INFO Gbl:52 used RAM: 1488967552B = 1454069kB = 1419MB  free: 184559744B = 176MB  total: 1673527296B = 1596MB
2016-01-31 18:40:29,029  INFO QNetsimEngine:388 SIMULATION (QNetsimEngine) AT 17:00:00 : #links=27 #nodes=0
2016-01-31 18:40:29,030  INFO QSim:462 SIMULATION (NEW QSim) AT 17:00:00 : #Veh=113440 lost=0 simT=59141.0s realT=59s; (s/r): 1002.3898305084746
2016-01-31 18:40:29,030  INFO Gbl:52 used RAM: 1625311936B = 1587218kB = 1550MB  free: 48215360B = 45MB  total: 1673527296B = 1596MB
2016-01-31 18:40:50,893  INFO QNetsimEngine:388 SIMULATION (QNetsimEngine) AT 18:00:00 : #links=36 #nodes=4
2016-01-31 18:40:50,893  INFO QSim:462 SIMULATION (NEW QSim) AT 18:00:00 : #Veh=101896 lost=0 simT=62741.0s realT=81s; (s/r): 774.5802469135803
2016-01-31 18:40:50,893  INFO Gbl:52 used RAM: 1588816296B = 1551578kB = 1515MB  free: 84711000B = 80MB  total: 1673527296B = 1596MB
2016-01-31 18:41:21,817  INFO QNetsimEngine:388 SIMULATION (QNetsimEngine) AT 19:00:00 : #links=35 #nodes=4
2016-01-31 18:41:21,817  INFO QSim:462 SIMULATION (NEW QSim) AT 19:00:00 : #Veh=89641 lost=0 simT=66341.0s realT=112s; (s/r): 592.3303571428571
2016-01-31 18:41:21,817  INFO Gbl:52 used RAM: 1553748512B = 1517332kB = 1481MB  free: 119778784B = 114MB  total: 1673527296B = 1596MB
2016-01-31 18:41:46,150  INFO QNetsimEngine:388 SIMULATION (QNetsimEngine) AT 20:00:00 : #links=24 #nodes=1
2016-01-31 18:41:46,150  INFO QSim:462 SIMULATION (NEW QSim) AT 20:00:00 : #Veh=79713 lost=0 simT=69941.0s realT=136s; (s/r): 514.2720588235294
2016-01-31 18:41:46,150  INFO Gbl:52 used RAM: 1626602912B = 1588479kB = 1551MB  free: 46924384B = 44MB  total: 1673527296B = 1596MB
2016-01-31 18:42:17,457  INFO QNetsimEngine:388 SIMULATION (QNetsimEngine) AT 21:00:00 : #links=20 #nodes=1
2016-01-31 18:42:17,457  INFO QSim:462 SIMULATION (NEW QSim) AT 21:00:00 : #Veh=71924 lost=0 simT=73541.0s realT=167s; (s/r): 440.36526946107784
2016-01-31 18:42:17,458  INFO Gbl:52 used RAM: 1576544552B = 1539594kB = 1503MB  free: 96982744B = 92MB  total: 1673527296B = 1596MB
2016-01-31 18:42:39,951  INFO QNetsimEngine:388 SIMULATION (QNetsimEngine) AT 22:00:00 : #links=17 #nodes=1
2016-01-31 18:42:39,951  INFO QSim:462 SIMULATION (NEW QSim) AT 22:00:00 : #Veh=64968 lost=0 simT=77141.0s realT=190s; (s/r): 406.0052631578947
2016-01-31 18:42:39,951  INFO Gbl:52 used RAM: 1590657728B = 1553376kB = 1516MB  free: 82869568B = 79MB  total: 1673527296B = 1596MB
2016-01-31 18:42:54,693  INFO QNetsimEngine:388 SIMULATION (QNetsimEngine) AT 23:00:00 : #links=12 #nodes=0
2016-01-31 18:42:54,693  INFO QSim:462 SIMULATION (NEW QSim) AT 23:00:00 : #Veh=59870 lost=0 simT=80741.0s realT=205s; (s/r): 393.85853658536587
2016-01-31 18:42:54,693  INFO Gbl:52 used RAM: 1631787568B = 1593542kB = 1556MB  free: 41739728B = 39MB  total: 1673527296B = 1596MB
2016-01-31 18:43:02,277  INFO QNetsimEngine:388 SIMULATION (QNetsimEngine) AT 24:00:00 : #links=0 #nodes=0
2016-01-31 18:43:02,277  INFO QSim:462 SIMULATION (NEW QSim) AT 24:00:00 : #Veh=58133 lost=0 simT=84341.0s realT=212s; (s/r): 397.83490566037733
2016-01-31 18:43:02,277  INFO Gbl:52 used RAM: 1621945280B = 1583930kB = 1546MB  free: 51582016B = 49MB  total: 1673527296B = 1596MB
2016-01-31 18:43:02,389  INFO QNetsimEngine:388 SIMULATION (QNetsimEngine) AT 25:00:00 : #links=0 #nodes=0
2016-01-31 18:43:02,389  INFO QSim:462 SIMULATION (NEW QSim) AT 25:00:00 : #Veh=58024 lost=0 simT=87941.0s realT=212s; (s/r): 414.8160377358491
2016-01-31 18:43:02,389  INFO Gbl:52 used RAM: 1630638808B = 1592420kB = 1555MB  free: 42888488B = 40MB  total: 1673527296B = 1596MB
2016-01-31 18:43:02,488  INFO QNetsimEngine:388 SIMULATION (QNetsimEngine) AT 26:00:00 : #links=0 #nodes=0
2016-01-31 18:43:02,488  INFO QSim:462 SIMULATION (NEW QSim) AT 26:00:00 : #Veh=57868 lost=0 simT=91541.0s realT=212s; (s/r): 431.79716981132077
2016-01-31 18:43:02,488  INFO Gbl:52 used RAM: 1633732504B = 1595441kB = 1558MB  free: 39794792B = 37MB  total: 1673527296B = 1596MB
2016-01-31 18:43:02,585  INFO QNetsimEngine:388 SIMULATION (QNetsimEngine) AT 27:00:00 : #links=0 #nodes=0
2016-01-31 18:43:02,585  INFO QSim:462 SIMULATION (NEW QSim) AT 27:00:00 : #Veh=57656 lost=0 simT=95141.0s realT=212s; (s/r): 448.77830188679246
2016-01-31 18:43:02,585  INFO Gbl:52 used RAM: 1636783944B = 1598421kB = 1560MB  free: 36743352B = 35MB  total: 1673527296B = 1596MB
2016-01-31 18:43:02,685  INFO QNetsimEngine:388 SIMULATION (QNetsimEngine) AT 28:00:00 : #links=0 #nodes=0
2016-01-31 18:43:02,685  INFO QSim:462 SIMULATION (NEW QSim) AT 28:00:00 : #Veh=57591 lost=0 simT=98741.0s realT=213s; (s/r): 463.57276995305165
2016-01-31 18:43:02,685  INFO Gbl:52 used RAM: 1639000072B = 1600586kB = 1563MB  free: 34527224B = 32MB  total: 1673527296B = 1596MB
2016-01-31 18:43:02,723  INFO AbstractController$6:225 ### ITERATION 20 fires after mobsim event
2016-01-31 18:43:02,723  INFO ControlerListenerManager:244 calling notifyAfterMobsim on org.matsim.core.controler.corelisteners.EventsHandlingImpl
2016-01-31 18:43:07,647  INFO ControlerListenerManager:249 calling notifyAfterMobsim on org.matsim.analysis.LegTimesControlerListener
2016-01-31 18:43:07,647  INFO Gbl:185 Thread performance: Thread=class org.matsim.core.events.SimStepParallelEventsManagerImpl$ProcessEventsRunnable0  cpu-time=20.640625sec
2016-01-31 18:43:07,648  INFO LegTimesControlerListener:50 [20] average trip (probably: leg) duration is: 1018 seconds = 00:16:58
2016-01-31 18:43:07,648  INFO ControlerListenerManager:252 [it.20] all ControlerAfterMobsimListeners called.
2016-01-31 18:43:07,648  INFO AbstractController$4:162 ### ITERATION 20 fires scoring event
2016-01-31 18:43:07,648  INFO ControlerListenerManager:184 calling notifyScoring on org.matsim.core.controler.corelisteners.PlansScoringImpl
2016-01-31 18:43:07,974  INFO EventsToScore:203 it: 20 msaStart: null
2016-01-31 18:43:08,082  INFO ControlerListenerManager:195 [it.20] all ControlerScoringListeners called.
2016-01-31 18:43:08,083  INFO AbstractController$5:170 ### ITERATION 20 fires iteration end event
2016-01-31 18:43:08,083  INFO ControlerListenerManager:161 calling notifyIterationEnds on org.matsim.core.controler.corelisteners.EventsHandlingImpl
2016-01-31 18:43:08,084  INFO EventsManagerImpl:161 removing Event-Handler: org.matsim.core.events.algorithms.EventWriterXML
2016-01-31 18:43:08,084  INFO EventsManagerImpl:161 removing Event-Handler: org.matsim.core.events.algorithms.EventWriterXML
2016-01-31 18:43:08,084  INFO ControlerListenerManager:161 calling notifyIterationEnds on org.matsim.core.controler.corelisteners.PlansScoringImpl
2016-01-31 18:43:08,084  INFO ControlerListenerManager:168 calling notifyIterationEnds on org.matsim.counts.CountsControlerListener
2016-01-31 18:43:08,131  INFO CountSimComparisonTableWriter:93 Writing CountsSimComparison to ./output/ITERS/it.20/20.countscompare.txt
2016-01-31 18:43:08,132  INFO CountSimComparisonTableWriter:127 Writing 'average weekday traffic volume' to ./output/ITERS/it.20/20.countscompareAWTV.txt
2016-01-31 18:43:08,132  INFO ControlerListenerManager:168 calling notifyIterationEnds on org.matsim.analysis.ScoreStatsControlerListener
2016-01-31 18:43:08,193  INFO ScoreStatsControlerListener:185 -- avg. score of the executed plan of each agent: 7.203203669519343
2016-01-31 18:43:08,193  INFO ScoreStatsControlerListener:186 -- avg. score of the worst plan of each agent: -13.439429185227798
2016-01-31 18:43:08,193  INFO ScoreStatsControlerListener:187 -- avg. of the avg. plan score per agent: 0.476932220234354
2016-01-31 18:43:08,194  INFO ScoreStatsControlerListener:188 -- avg. score of the best plan of each agent: 14.305553010628566
2016-01-31 18:43:08,285  INFO ControlerListenerManager:168 calling notifyIterationEnds on org.matsim.analysis.TravelDistanceStatsControlerListener
2016-01-31 18:43:08,293  INFO TravelDistanceStats:128 [TravelDistanceStats] using 8 thread(s).
2016-01-31 18:43:08,346  INFO TravelDistanceStats:141 [TravelDistanceStats] all threads finished.
2016-01-31 18:43:08,347  INFO TravelDistanceStats:161 -- average of the average leg distance per plan (executed plans only): 1828.578440195821
2016-01-31 18:43:08,347  INFO TravelDistanceStats:162 (TravelDistanceStats takes an average over all legs where the simulation reports travelled distances. These are car legs, pt legs,
2016-01-31 18:43:08,347  INFO TravelDistanceStats:163 (and teleported legs whose route contains a distance.)
2016-01-31 18:43:08,452  INFO ControlerListenerManager:168 calling notifyIterationEnds on org.matsim.analysis.LegHistogramListener
2016-01-31 18:43:08,458  INFO LegHistogramListener:72 number of legs:	632267	100%
2016-01-31 18:43:08,458  INFO LegHistogramListener:79 number of pt legs:	227786	36.02686839578849%
2016-01-31 18:43:08,458  INFO LegHistogramListener:79 number of transit_walk legs:	404481	63.97313160421151%
2016-01-31 18:43:09,007  INFO ControlerListenerManager:168 calling notifyIterationEnds on org.matsim.analysis.LinkStatsControlerListener
2016-01-31 18:43:15,660  INFO ControlerListenerManager:172 [it.20] all ControlerIterationEndsListeners called.
2016-01-31 18:43:15,787  INFO AbstractController:180 ### ITERATION 20 ENDS
2016-01-31 18:43:15,787  INFO AbstractController:181 ###################################################
2016-01-31 18:43:15,787  INFO MatsimRuntimeModifications:108 S H U T D O W N   ---   start shutdown.
2016-01-31 18:43:15,788  INFO ControlerListenerManager:122 calling notifyShutdown on org.matsim.core.controler.corelisteners.EventsHandlingImpl
2016-01-31 18:43:15,788  INFO ControlerListenerManager:122 calling notifyShutdown on org.matsim.core.controler.corelisteners.DumpDataAtEndImpl
2016-01-31 18:43:15,868  INFO Counter:51 [PopulationWriter] dumped person # 1
2016-01-31 18:43:15,868  INFO Counter:51 [PopulationWriter] dumped person # 2
2016-01-31 18:43:15,869  INFO Counter:51 [PopulationWriter] dumped person # 4
2016-01-31 18:43:15,869  INFO Counter:51 [PopulationWriter] dumped person # 8
2016-01-31 18:43:15,871  INFO Counter:51 [PopulationWriter] dumped person # 16
2016-01-31 18:43:15,873  INFO Counter:51 [PopulationWriter] dumped person # 32
2016-01-31 18:43:15,877  INFO Counter:51 [PopulationWriter] dumped person # 64
2016-01-31 18:43:15,886  INFO Counter:51 [PopulationWriter] dumped person # 128
2016-01-31 18:43:15,904  INFO Counter:51 [PopulationWriter] dumped person # 256
2016-01-31 18:43:15,943  INFO Counter:51 [PopulationWriter] dumped person # 512
2016-01-31 18:43:16,022  INFO Counter:51 [PopulationWriter] dumped person # 1024
2016-01-31 18:43:16,177  INFO Counter:51 [PopulationWriter] dumped person # 2048
2016-01-31 18:43:16,487  INFO Counter:51 [PopulationWriter] dumped person # 4096
2016-01-31 18:43:17,089  INFO Counter:51 [PopulationWriter] dumped person # 8192
2016-01-31 18:43:21,998  INFO Counter:51 [PopulationWriter] dumped person # 16384
2016-01-31 18:43:26,889  INFO Counter:51 [PopulationWriter] dumped person # 32768
2016-01-31 18:43:35,964  INFO Counter:51 [PopulationWriter] dumped person # 65536
2016-01-31 18:43:55,173  INFO Counter:51 [PopulationWriter] dumped person # 131072
2016-01-31 18:44:08,168  INFO PopulationWriter:95 Population written to: ./output/output_plans.xml.gz
2016-01-31 18:44:08,169  INFO Counter:57 [PopulationWriter] dumped person # 188594
2016-01-31 18:44:08,179  INFO NetworkWriter:46 Writing network to file: ./output/output_network.xml.gz...
2016-01-31 18:44:08,219  INFO NetworkWriter:49 done.
2016-01-31 18:44:08,276  INFO VehicleWriterV1:55 Vehicles written to: ./output/output_transitVehicles.xml.gz
2016-01-31 18:44:08,277  INFO VehicleWriterV1:55 Vehicles written to: ./output/output_vehicles.xml.gz
2016-01-31 18:44:08,294  INFO Counter:57 [HouseholdsWriter] dumped household # 0
2016-01-31 18:44:08,305  INFO LaneDefinitionsWriter20:62 Using LaneDefinitionWriter20...
2016-01-31 18:44:08,305  INFO LaneDefinitionsWriter20:71 writing to file: ./output/output_lanes.xml.gz
2016-01-31 18:44:08,516  INFO ControlerListenerManager:127 calling notifyShutdown on org.matsim.analysis.ScoreStatsControlerListener
2016-01-31 18:44:08,517  INFO ControlerListenerManager:127 calling notifyShutdown on org.matsim.analysis.TravelDistanceStatsControlerListener
2016-01-31 18:44:08,517  INFO ControlerListenerManager:130 all ControlerShutdownListeners called.
2016-01-31 18:44:08,517  INFO MatsimRuntimeModifications:131 S H U T D O W N   ---   shutdown completed.
2016-01-31 18:44:08,517  INFO OutputDirectoryLogging:168 closing the logfile, i.e. messages sent to the logger after this message are not written to the logfile.
