2015-10-05 15:56:04,950  INFO Gbl:57 JVM: 1.8.0_20; Oracle Corporation; mixed mode; 64-bit
2015-10-05 15:56:04,950  INFO Gbl:61 OS: Windows 8.1; 6.3; amd64
2015-10-05 15:56:04,950  INFO Gbl:64 CPU cores: 8
2015-10-05 15:56:04,952  INFO Gbl:65 max. Memory: 1803.0MB (1890582528B)
2015-10-05 15:56:04,952  INFO Gbl:103 MATSim-Build: r${buildNumber} (${timestamp})
2015-10-05 15:56:04,953  INFO AbstractController:102 Used Controler-Class: org.matsim.core.controler.Controler
2015-10-05 15:56:05,010  INFO ScenarioLoaderImpl:100 loading scenario from base directory: C:\MATSim\workspace-mars\dta-brt\
2015-10-05 15:56:05,011  INFO ScenarioLoaderImpl:123 loading network from ./input/specialNetwork.xml
2015-10-05 15:56:05,012  INFO MatsimXmlParser:145 starting to parse xml from file ./input/specialNetwork.xml ...
2015-10-05 15:56:05,015  INFO MatsimNetworkReader:83 using network_v1-reader.
2015-10-05 15:56:05,015  INFO MatsimXmlParser:253 Trying to load http://www.matsim.org/files/dtd/network_v1.dtd. In some cases (e.g. network interface up but no connection), this may take a bit.
2015-10-05 15:56:05,435  INFO NetworkImpl:134  node # 1
2015-10-05 15:56:05,435  INFO NetworkImpl:134  node # 2
2015-10-05 15:56:05,436  INFO NetworkImpl:134  node # 4
2015-10-05 15:56:05,436  INFO NetworkImpl:134  node # 8
2015-10-05 15:56:05,437  INFO NetworkImpl:134  node # 16
2015-10-05 15:56:05,438  INFO NetworkImpl:134  node # 32
2015-10-05 15:56:05,441  INFO NetworkImpl:134  node # 64
2015-10-05 15:56:05,447  INFO NetworkImpl:134  node # 128
2015-10-05 15:56:05,455  INFO NetworkImpl:134  node # 256
2015-10-05 15:56:05,465  INFO NetworkImpl:134  node # 512
2015-10-05 15:56:05,480  INFO NetworkImpl:134  node # 1024
2015-10-05 15:56:05,504  INFO NetworkImpl:130  link # 1
2015-10-05 15:56:05,504  INFO NetworkImpl:130  link # 2
2015-10-05 15:56:05,505  INFO NetworkImpl:130  link # 4
2015-10-05 15:56:05,505  INFO NetworkImpl:130  link # 8
2015-10-05 15:56:05,506  INFO NetworkImpl:130  link # 16
2015-10-05 15:56:05,508  INFO NetworkImpl:130  link # 32
2015-10-05 15:56:05,510  INFO NetworkImpl:130  link # 64
2015-10-05 15:56:05,514  INFO NetworkImpl:130  link # 128
2015-10-05 15:56:05,519  INFO NetworkImpl:130  link # 256
2015-10-05 15:56:05,522  WARN LinkImpl:111 [from=to=[id=56][coord=[x=1063203.2873370168][y=877613.519849463]][type=null][nof_inlinks=1][nof_outlinks=1] link is a loop]
2015-10-05 15:56:05,522  WARN LinkImpl:113  Future occurences of this logging statement are suppressed.
2015-10-05 15:56:05,522  WARN NodeImpl:98 [id=56][coord=[x=1063203.2873370168][y=877613.519849463]][type=null][nof_inlinks=1][nof_outlinks=2][inlink_id=56-56 is now in- and out-link]
2015-10-05 15:56:05,523  WARN NodeImpl:99  This message given only once.
2015-10-05 15:56:05,528  INFO NetworkImpl:130  link # 512
2015-10-05 15:56:05,544  INFO NetworkImpl:130  link # 1024
2015-10-05 15:56:05,576  INFO NetworkImpl:130  link # 2048
2015-10-05 15:56:05,592  INFO ScenarioLoaderImpl:147 no facilities file set in config, therefore not loading any facilities.  This is not a problem except if you are using facilities
2015-10-05 15:56:05,592  INFO ScenarioLoaderImpl:155 no facility-attributes file set in config, not loading any facility attributes
2015-10-05 15:56:05,592  INFO ScenarioLoaderImpl:162 loading population from ./input/plans_sitm_cali_01.04.2014_troncal.xml
2015-10-05 15:56:05,599  INFO MatsimXmlParser:145 starting to parse xml from file ./input/plans_sitm_cali_01.04.2014_troncal.xml ...
2015-10-05 15:56:05,602  INFO MatsimPopulationReader:86 using population_v5-reader.
2015-10-05 15:56:05,602  INFO MatsimXmlParser:253 Trying to load http://www.matsim.org/files/dtd/population_v5.dtd. In some cases (e.g. network interface up but no connection), this may take a bit.
2015-10-05 15:56:05,914  INFO PopulationImpl:173  person # 1
2015-10-05 15:56:05,915  INFO PopulationImpl:173  person # 2
2015-10-05 15:56:05,917  INFO PopulationImpl:173  person # 4
2015-10-05 15:56:05,918  INFO PopulationImpl:173  person # 8
2015-10-05 15:56:05,920  INFO PopulationImpl:173  person # 16
2015-10-05 15:56:05,923  INFO PopulationImpl:173  person # 32
2015-10-05 15:56:05,933  INFO PopulationImpl:173  person # 64
2015-10-05 15:56:05,946  INFO PopulationImpl:173  person # 128
2015-10-05 15:56:05,960  INFO PopulationImpl:173  person # 256
2015-10-05 15:56:05,975  INFO PopulationImpl:173  person # 512
2015-10-05 15:56:06,006  INFO PopulationImpl:173  person # 1024
2015-10-05 15:56:06,074  INFO PopulationImpl:173  person # 2048
2015-10-05 15:56:06,175  INFO PopulationImpl:173  person # 4096
2015-10-05 15:56:06,342  INFO PopulationImpl:173  person # 8192
2015-10-05 15:56:06,569  INFO PopulationImpl:173  person # 16384
2015-10-05 15:56:06,923  INFO PopulationImpl:173  person # 32768
2015-10-05 15:56:07,413  INFO PopulationImpl:173  person # 59487
2015-10-05 15:56:07,413  INFO ScenarioLoaderImpl:178 no person-attributes file set in config, not loading any person attributes
2015-10-05 15:56:07,413  INFO ScenarioLoaderImpl:190 no households file set in config, not loading households
2015-10-05 15:56:07,414  INFO ScenarioLoaderImpl:198 no household-attributes file set in config, not loading any household attributes
2015-10-05 15:56:07,418 DEBUG MatsimFileTypeGuesser:147 Detected public id: null
2015-10-05 15:56:07,418 DEBUG MatsimFileTypeGuesser:148 Detected system Id: http://www.matsim.org/files/dtd/transitSchedule_v1.dtd
2015-10-05 15:56:07,420  INFO MatsimXmlParser:145 starting to parse xml from file ./input/transitSchedule.xml ...
2015-10-05 15:56:07,423  INFO MatsimXmlParser:253 Trying to load http://www.matsim.org/files/dtd/transitSchedule_v1.dtd. In some cases (e.g. network interface up but no connection), this may take a bit.
2015-10-05 15:56:08,098  INFO ScenarioLoaderImpl:225 loading transit vehicles from ./input/transitVehicles.xml
2015-10-05 15:56:08,099  INFO MatsimXmlParser:145 starting to parse xml from file ./input/transitVehicles.xml ...
2015-10-05 15:56:08,102  INFO MatsimXmlParser:253 Trying to load http://www.matsim.org/files/dtd/vehicleDefinitions_v1.0.xsd. In some cases (e.g. network interface up but no connection), this may take a bit.
2015-10-05 15:56:08,686  INFO MatsimXmlParser:253 Trying to load http://www.matsim.org/files/dtd/matsimCommon.xsd. In some cases (e.g. network interface up but no connection), this may take a bit.
2015-10-05 15:56:09,060  INFO MatsimXmlParser:253 Trying to load http://www.matsim.org/files/dtd/vehicleDefinitionsEnumTypes.xsd. In some cases (e.g. network interface up but no connection), this may take a bit.
2015-10-05 15:56:09,558  INFO Counter:51  vehicles # 1
2015-10-05 15:56:09,559  INFO Counter:51  vehicles # 2
2015-10-05 15:56:09,559  INFO Counter:51  vehicles # 4
2015-10-05 15:56:09,559  INFO Counter:51  vehicles # 8
2015-10-05 15:56:09,560  INFO Counter:51  vehicles # 16
2015-10-05 15:56:09,560  INFO Counter:51  vehicles # 32
2015-10-05 15:56:09,562  INFO Counter:51  vehicles # 64
2015-10-05 15:56:09,571  INFO Controler:228 setting up transit simulation
2015-10-05 15:56:10,143  INFO Injector:80 org.matsim.core.router.util.TravelTime
2015-10-05 15:56:10,144  INFO Injector:82    -> of(edu.univalle.brt.network.FelisTravelTime@36c88a32)
2015-10-05 15:56:10,144  INFO Injector:80 org.matsim.core.controler.corelisteners.PlansScoring
2015-10-05 15:56:10,145  INFO Injector:82    -> FactoryProxy{key=Key[type=org.matsim.core.controler.corelisteners.PlansScoring, annotation=[none]], provider=com.google.inject.internal.ConstructorBindingImpl$Factory@78b66d36[Scopes.SINGLETON]}
2015-10-05 15:56:10,145  INFO Injector:80 org.matsim.core.controler.corelisteners.PlansReplanning
2015-10-05 15:56:10,146  INFO Injector:82    -> FactoryProxy{key=Key[type=org.matsim.core.controler.corelisteners.PlansReplanning, annotation=[none]], provider=com.google.inject.internal.ConstructorBindingImpl$Factory@69b2283a[Scopes.SINGLETON]}
2015-10-05 15:56:10,146  INFO Injector:80 org.matsim.core.controler.corelisteners.PlansDumping
2015-10-05 15:56:10,146  INFO Injector:82    -> FactoryProxy{key=Key[type=org.matsim.core.controler.corelisteners.PlansDumping, annotation=[none]], provider=com.google.inject.internal.ConstructorBindingImpl$Factory@1d119efb[Scopes.SINGLETON]}
2015-10-05 15:56:10,146  INFO Injector:80 org.matsim.core.controler.corelisteners.EventsHandling
2015-10-05 15:56:10,146  INFO Injector:82    -> FactoryProxy{key=Key[type=org.matsim.core.controler.corelisteners.EventsHandling, annotation=[none]], provider=com.google.inject.internal.ConstructorBindingImpl$Factory@2473d930[Scopes.SINGLETON]}
2015-10-05 15:56:10,146  INFO Injector:80 org.matsim.core.controler.corelisteners.DumpDataAtEnd
2015-10-05 15:56:10,147  INFO Injector:82    -> FactoryProxy{key=Key[type=org.matsim.core.controler.corelisteners.DumpDataAtEnd, annotation=[none]], provider=com.google.inject.internal.ConstructorBindingImpl$Factory@769f71a9[Scopes.SINGLETON]}
2015-10-05 15:56:10,147  INFO Injector:80 org.matsim.core.mobsim.framework.Mobsim
2015-10-05 15:56:10,147  INFO Injector:82    -> Key[type=org.matsim.core.mobsim.qsim.QSimProvider, annotation=[none]]
2015-10-05 15:56:10,147  INFO Injector:80 org.matsim.api.core.v01.network.Network
2015-10-05 15:56:10,147  INFO Injector:82    -> Key[type=org.matsim.core.scenario.ScenarioElementsModule$NetworkProvider, annotation=[none]]
2015-10-05 15:56:10,147  INFO Injector:80 org.matsim.api.core.v01.population.Population
2015-10-05 15:56:10,147  INFO Injector:82    -> Key[type=org.matsim.core.scenario.ScenarioElementsModule$PopulationProvider, annotation=[none]]
2015-10-05 15:56:10,147  INFO Injector:80 org.matsim.pt.transitSchedule.api.TransitSchedule
2015-10-05 15:56:10,147  INFO Injector:82    -> Key[type=org.matsim.core.scenario.ScenarioElementsModule$TransitScheduleProvider, annotation=[none]]
2015-10-05 15:56:10,147  INFO Injector:80 org.matsim.core.trafficmonitoring.TravelTimeCalculator
2015-10-05 15:56:10,148  INFO Injector:82    -> Key[type=org.matsim.core.trafficmonitoring.TravelTimeCalculatorModule$TravelTimeCalculatorProvider, annotation=[none]][Scopes.SINGLETON]
2015-10-05 15:56:10,148  INFO Injector:80 org.matsim.core.events.handler.EventHandler
2015-10-05 15:56:10,148  INFO Injector:82    -> FactoryProxy{key=Key[type=org.matsim.core.events.handler.EventHandler, annotation=@com.google.inject.multibindings.Element(setName=,uniqueId=2, type=MULTIBINDER, keyType=)], provider=Key[type=org.matsim.core.trafficmonitoring.TravelTimeCalculatorModule$TravelTimeCalculatorProvider, annotation=[none]][Scopes.SINGLETON]}
2015-10-05 15:56:10,148  INFO Injector:80 org.matsim.core.router.util.TravelTime
2015-10-05 15:56:10,148  INFO Injector:82    -> FactoryProxy{key=Key[type=org.matsim.core.router.util.TravelTime, annotation=@com.google.inject.multibindings.Element(setName=,uniqueId=3, type=MAPBINDER, keyType=java.lang.String)], provider=Key[type=org.matsim.core.trafficmonitoring.TravelTimeCalculatorModule$FromTravelTimeCalculator, annotation=[none]]}
2015-10-05 15:56:10,148  INFO Injector:80 org.matsim.core.router.util.TravelTime
2015-10-05 15:56:10,148  INFO Injector:82    -> Key[type=org.matsim.core.trafficmonitoring.TravelTimeCalculatorModule$FromTravelTimeCalculator, annotation=[none]]
2015-10-05 15:56:10,148  INFO Injector:80 org.matsim.core.router.util.LinkToLinkTravelTime
2015-10-05 15:56:10,148  INFO Injector:82    -> Key[type=org.matsim.core.trafficmonitoring.TravelTimeCalculatorModule$LinkToLinkTravelTimeProvider, annotation=[none]]
2015-10-05 15:56:10,149  INFO Injector:80 org.matsim.core.router.costcalculators.TravelDisutilityFactory
2015-10-05 15:56:10,149  INFO Injector:82    -> FactoryProxy{key=Key[type=org.matsim.core.router.costcalculators.TravelDisutilityFactory, annotation=@com.google.inject.multibindings.Element(setName=,uniqueId=5, type=MAPBINDER, keyType=java.lang.String)], provider=FactoryProxy{key=Key[type=org.matsim.core.router.costcalculators.TravelDisutilityFactory, annotation=@org.matsim.core.controler.AbstractModule$ForCar], provider=com.google.inject.internal.ConstructorBindingImpl$Factory@1622f1b}[Scopes.SINGLETON]}
2015-10-05 15:56:10,149  INFO Injector:80 org.matsim.core.router.costcalculators.TravelDisutilityFactory
2015-10-05 15:56:10,149  INFO Injector:82    -> FactoryProxy{key=Key[type=org.matsim.core.router.costcalculators.TravelDisutilityFactory, annotation=@org.matsim.core.controler.AbstractModule$ForCar], provider=com.google.inject.internal.ConstructorBindingImpl$Factory@1622f1b}[Scopes.SINGLETON]
2015-10-05 15:56:10,149  INFO Injector:80 org.matsim.core.scoring.ScoringFunctionFactory
2015-10-05 15:56:10,149  INFO Injector:82    -> org.matsim.core.scoring.functions.CharyparNagelScoringFunctionModule$1@5bd03f44
2015-10-05 15:56:10,149  INFO Injector:80 org.matsim.core.router.util.LeastCostPathCalculatorFactory
2015-10-05 15:56:10,149  INFO Injector:82    -> FactoryProxy{key=Key[type=org.matsim.core.router.util.LeastCostPathCalculatorFactory, annotation=[none]], provider=com.google.inject.internal.ConstructorBindingImpl$Factory@6e4784bc[Scopes.SINGLETON]}
2015-10-05 15:56:10,149  INFO Injector:80 org.matsim.pt.router.TransitRouter
2015-10-05 15:56:10,150  INFO Injector:82    -> Key[type=org.matsim.pt.router.TransitRouterImplFactory, annotation=[none]]
2015-10-05 15:56:10,150  INFO Injector:80 org.matsim.core.router.TripRouterFactory
2015-10-05 15:56:10,150  INFO Injector:82    -> FactoryProxy{key=Key[type=org.matsim.core.router.TripRouterFactory, annotation=[none]], provider=com.google.inject.internal.ConstructorBindingImpl$Factory@10e41621}[Scopes.SINGLETON]
2015-10-05 15:56:10,150  INFO Injector:80 org.matsim.core.router.TripRouter
2015-10-05 15:56:10,150  INFO Injector:82    -> Key[type=org.matsim.core.router.TripRouterModule$RealTripRouterProvider, annotation=[none]]
2015-10-05 15:56:10,150  INFO Injector:80 org.matsim.core.replanning.selectors.GenericPlanSelector<org.matsim.api.core.v01.population.Plan, org.matsim.api.core.v01.population.Person>
2015-10-05 15:56:10,150  INFO Injector:82    -> FactoryProxy{key=Key[type=org.matsim.core.replanning.selectors.GenericPlanSelector<org.matsim.api.core.v01.population.Plan, org.matsim.api.core.v01.population.Person>, annotation=@com.google.inject.multibindings.Element(setName=,uniqueId=7, type=MAPBINDER, keyType=java.lang.String)], provider=com.google.inject.internal.ConstructorBindingImpl$Factory@a9cd3b1}
2015-10-05 15:56:10,150  INFO Injector:80 org.matsim.core.replanning.selectors.GenericPlanSelector<org.matsim.api.core.v01.population.Plan, org.matsim.api.core.v01.population.Person>
2015-10-05 15:56:10,150  INFO Injector:82    -> FactoryProxy{key=Key[type=org.matsim.core.replanning.selectors.GenericPlanSelector<org.matsim.api.core.v01.population.Plan, org.matsim.api.core.v01.population.Person>, annotation=@com.google.inject.multibindings.Element(setName=,uniqueId=9, type=MAPBINDER, keyType=java.lang.String)], provider=com.google.inject.internal.ConstructorBindingImpl$Factory@9225652}
2015-10-05 15:56:10,150  INFO Injector:80 org.matsim.core.replanning.selectors.GenericPlanSelector<org.matsim.api.core.v01.population.Plan, org.matsim.api.core.v01.population.Person>
2015-10-05 15:56:10,151  INFO Injector:82    -> Key[type=org.matsim.core.replanning.DefaultPlanStrategiesModule$ExpBetaPlanSelectorForRemoval, annotation=[none]]
2015-10-05 15:56:10,151  INFO Injector:80 org.matsim.core.replanning.selectors.GenericPlanSelector<org.matsim.api.core.v01.population.Plan, org.matsim.api.core.v01.population.Person>
2015-10-05 15:56:10,151  INFO Injector:82    -> Key[type=org.matsim.core.replanning.DefaultPlanStrategiesModule$ExpBetaPlanChangerForRemoval, annotation=[none]]
2015-10-05 15:56:10,151  INFO Injector:80 org.matsim.core.replanning.selectors.GenericPlanSelector<org.matsim.api.core.v01.population.Plan, org.matsim.api.core.v01.population.Person>
2015-10-05 15:56:10,151  INFO Injector:82    -> Key[type=org.matsim.core.replanning.DefaultPlanStrategiesModule$PathSizeLogitSelectorForRemoval, annotation=[none]]
2015-10-05 15:56:10,151  INFO Injector:80 org.matsim.core.replanning.PlanStrategy
2015-10-05 15:56:10,151  INFO Injector:82    -> Key[type=org.matsim.core.replanning.modules.KeepLastSelectedPlanStrategyFactory, annotation=[none]]
2015-10-05 15:56:10,151  INFO Injector:80 org.matsim.core.replanning.PlanStrategy
2015-10-05 15:56:10,151  INFO Injector:82    -> Key[type=org.matsim.core.replanning.modules.SelectBestPlanStrategyFactory, annotation=[none]]
2015-10-05 15:56:10,151  INFO Injector:80 org.matsim.core.replanning.PlanStrategy
2015-10-05 15:56:10,151  INFO Injector:82    -> Key[type=org.matsim.core.replanning.modules.SelectExpBetaPlanStrategyFactory, annotation=[none]]
2015-10-05 15:56:10,151  INFO Injector:80 org.matsim.core.replanning.PlanStrategy
2015-10-05 15:56:10,152  INFO Injector:82    -> Key[type=org.matsim.core.replanning.modules.ChangeExpBetaPlanStrategyFactory, annotation=[none]]
2015-10-05 15:56:10,152  INFO Injector:80 org.matsim.core.replanning.PlanStrategy
2015-10-05 15:56:10,152  INFO Injector:82    -> Key[type=org.matsim.core.replanning.modules.SelectRandomStrategyFactory, annotation=[none]]
2015-10-05 15:56:10,152  INFO Injector:80 org.matsim.core.replanning.PlanStrategy
2015-10-05 15:56:10,152  INFO Injector:82    -> Key[type=org.matsim.core.replanning.modules.SelectPathSizeLogitStrategyFactory, annotation=[none]]
2015-10-05 15:56:10,152  INFO Injector:80 org.matsim.core.replanning.PlanStrategy
2015-10-05 15:56:10,152  INFO Injector:82    -> Key[type=org.matsim.core.replanning.modules.ReRoutePlanStrategyFactory, annotation=[none]]
2015-10-05 15:56:10,152  INFO Injector:80 org.matsim.core.replanning.PlanStrategy
2015-10-05 15:56:10,152  INFO Injector:82    -> Key[type=org.matsim.core.replanning.modules.TimeAllocationMutatorPlanStrategyFactory, annotation=[none]]
2015-10-05 15:56:10,152  INFO Injector:80 org.matsim.core.replanning.PlanStrategy
2015-10-05 15:56:10,152  INFO Injector:82    -> Key[type=org.matsim.core.replanning.modules.TimeAllocationMutatorReRoutePlanStrategyFactory, annotation=[none]]
2015-10-05 15:56:10,152  INFO Injector:80 org.matsim.core.replanning.PlanStrategy
2015-10-05 15:56:10,152  INFO Injector:82    -> Key[type=org.matsim.core.replanning.modules.ChangeSingleLegModeStrategyFactory, annotation=[none]]
2015-10-05 15:56:10,153  INFO Injector:80 org.matsim.core.replanning.PlanStrategy
2015-10-05 15:56:10,153  INFO Injector:82    -> Key[type=org.matsim.core.replanning.modules.ChangeLegModeStrategyFactory, annotation=[none]]
2015-10-05 15:56:10,153  INFO Injector:80 org.matsim.core.replanning.PlanStrategy
2015-10-05 15:56:10,153  INFO Injector:82    -> Key[type=org.matsim.core.replanning.modules.SubtourModeChoiceStrategyFactory, annotation=[none]]
2015-10-05 15:56:10,153  INFO Injector:80 org.matsim.core.replanning.PlanStrategy
2015-10-05 15:56:10,153  INFO Injector:82    -> Key[type=org.matsim.core.replanning.modules.ChangeTripModeStrategyFactory, annotation=[none]]
2015-10-05 15:56:10,153  INFO Injector:80 org.matsim.core.replanning.PlanStrategy
2015-10-05 15:56:10,153  INFO Injector:82    -> Key[type=org.matsim.core.replanning.modules.ChangeSingleTripModeStrategyFactory, annotation=[none]]
2015-10-05 15:56:10,153  INFO Injector:80 org.matsim.core.replanning.PlanStrategy
2015-10-05 15:56:10,153  INFO Injector:82    -> Key[type=org.matsim.core.replanning.modules.TripSubtourModeChoiceStrategyFactory, annotation=[none]]
2015-10-05 15:56:10,153  INFO Injector:80 org.matsim.core.replanning.StrategyManager
2015-10-05 15:56:10,154  INFO Injector:82    -> Key[type=org.matsim.core.replanning.StrategyManagerModule$StrategyManagerProvider, annotation=[none]][Scopes.SINGLETON]
2015-10-05 15:56:10,154  INFO Injector:80 org.matsim.core.replanning.ReplanningContext
2015-10-05 15:56:10,154  INFO Injector:82    -> FactoryProxy{key=Key[type=org.matsim.core.replanning.ReplanningContext, annotation=[none]], provider=com.google.inject.internal.ConstructorBindingImpl$Factory@31c88ec8}
2015-10-05 15:56:10,154  INFO Injector:80 org.matsim.analysis.CalcLinkStats
2015-10-05 15:56:10,154  INFO Injector:82    -> Key[type=org.matsim.analysis.LinkStatsModule$CalcLinkStatsProvider, annotation=[none]][Scopes.SINGLETON]
2015-10-05 15:56:10,154  INFO Injector:80 org.matsim.core.controler.listener.ControlerListener
2015-10-05 15:56:10,154  INFO Injector:82    -> FactoryProxy{key=Key[type=org.matsim.core.controler.listener.ControlerListener, annotation=@com.google.inject.multibindings.Element(setName=,uniqueId=47, type=MULTIBINDER, keyType=)], provider=com.google.inject.internal.ConstructorBindingImpl$Factory@7ed7259e}
2015-10-05 15:56:10,155  INFO Injector:80 org.matsim.analysis.VolumesAnalyzer
2015-10-05 15:56:10,155  INFO Injector:82    -> Key[type=org.matsim.analysis.VolumesAnalyzerModule$VolumesAnalyzerProvider, annotation=[none]][Scopes.SINGLETON]
2015-10-05 15:56:10,155  INFO Injector:80 org.matsim.core.events.handler.EventHandler
2015-10-05 15:56:10,155  INFO Injector:82    -> FactoryProxy{key=Key[type=org.matsim.core.events.handler.EventHandler, annotation=@com.google.inject.multibindings.Element(setName=,uniqueId=48, type=MULTIBINDER, keyType=)], provider=Key[type=org.matsim.analysis.VolumesAnalyzerModule$VolumesAnalyzerProvider, annotation=[none]][Scopes.SINGLETON]}
2015-10-05 15:56:10,155  INFO Injector:80 org.matsim.core.controler.listener.ControlerListener
2015-10-05 15:56:10,155  INFO Injector:82    -> FactoryProxy{key=Key[type=org.matsim.core.controler.listener.ControlerListener, annotation=@com.google.inject.multibindings.Element(setName=,uniqueId=49, type=MULTIBINDER, keyType=)], provider=com.google.inject.internal.ConstructorBindingImpl$Factory@c33b74f}
2015-10-05 15:56:10,156  INFO Injector:80 org.matsim.core.events.handler.EventHandler
2015-10-05 15:56:10,156  INFO Injector:82    -> FactoryProxy{key=Key[type=org.matsim.core.events.handler.EventHandler, annotation=@com.google.inject.multibindings.Element(setName=,uniqueId=50, type=MULTIBINDER, keyType=)], provider=com.google.inject.internal.ConstructorBindingImpl$Factory@619713e5[Scopes.SINGLETON]}
2015-10-05 15:56:10,156  INFO Injector:80 org.matsim.core.controler.listener.ControlerListener
2015-10-05 15:56:10,156  INFO Injector:82    -> FactoryProxy{key=Key[type=org.matsim.core.controler.listener.ControlerListener, annotation=@com.google.inject.multibindings.Element(setName=,uniqueId=51, type=MULTIBINDER, keyType=)], provider=com.google.inject.internal.ConstructorBindingImpl$Factory@7722c3c3}
2015-10-05 15:56:10,156  INFO Injector:80 org.matsim.core.controler.listener.ControlerListener
2015-10-05 15:56:10,156  INFO Injector:82    -> FactoryProxy{key=Key[type=org.matsim.core.controler.listener.ControlerListener, annotation=@com.google.inject.multibindings.Element(setName=,uniqueId=52, type=MULTIBINDER, keyType=)], provider=com.google.inject.internal.ConstructorBindingImpl$Factory@291ae[Scopes.SINGLETON]}
2015-10-05 15:56:10,157  INFO Injector:80 org.matsim.analysis.ScoreStats
2015-10-05 15:56:10,157  INFO Injector:82    -> FactoryProxy{key=Key[type=org.matsim.analysis.ScoreStats, annotation=[none]], provider=com.google.inject.internal.ConstructorBindingImpl$Factory@291ae[Scopes.SINGLETON]}
2015-10-05 15:56:10,157  INFO Injector:80 org.matsim.core.controler.listener.ControlerListener
2015-10-05 15:56:10,157  INFO Injector:82    -> FactoryProxy{key=Key[type=org.matsim.core.controler.listener.ControlerListener, annotation=@com.google.inject.multibindings.Element(setName=,uniqueId=53, type=MULTIBINDER, keyType=)], provider=com.google.inject.internal.ConstructorBindingImpl$Factory@188715b5}
2015-10-05 15:56:10,157  INFO Injector:80 org.matsim.core.controler.listener.ControlerListener
2015-10-05 15:56:10,157  INFO Injector:82    -> FactoryProxy{key=Key[type=org.matsim.core.controler.listener.ControlerListener, annotation=@com.google.inject.multibindings.Element(setName=,uniqueId=54, type=MULTIBINDER, keyType=)], provider=com.google.inject.internal.ConstructorBindingImpl$Factory@5119fb47}
2015-10-05 15:56:10,157  INFO Injector:80 org.matsim.core.controler.OutputDirectoryHierarchy
2015-10-05 15:56:10,158  INFO Injector:82    -> of(org.matsim.core.controler.OutputDirectoryHierarchy@3835c46)
2015-10-05 15:56:10,158  INFO Injector:80 org.matsim.analysis.IterationStopWatch
2015-10-05 15:56:10,158  INFO Injector:82    -> of(org.matsim.analysis.IterationStopWatch@20ce78ec)
2015-10-05 15:56:10,158  INFO Injector:80 org.matsim.api.core.v01.Scenario
2015-10-05 15:56:10,158  INFO Injector:82    -> of(org.matsim.core.scenario.ScenarioImpl@6eda5c9)
2015-10-05 15:56:10,158  INFO Injector:80 org.matsim.core.api.experimental.events.EventsManager
2015-10-05 15:56:10,158  INFO Injector:82    -> of(org.matsim.core.events.SimStepParallelEventsManagerImpl@192d43ce)
2015-10-05 15:56:10,158  INFO Injector:80 org.matsim.analysis.LegHistogram
2015-10-05 15:56:10,159  INFO Injector:82    -> com.google.inject.internal.ConstructorBindingImpl$Factory@6973b51b
2015-10-05 15:56:10,159  INFO Injector:80 org.matsim.analysis.CalcLegTimes
2015-10-05 15:56:10,159  INFO Injector:82    -> com.google.inject.internal.ConstructorBindingImpl$Factory@619713e5[Scopes.SINGLETON]
2015-10-05 15:56:10,159  INFO Injector:80 org.matsim.analysis.ScoreStatsControlerListener
2015-10-05 15:56:10,159  INFO Injector:82    -> com.google.inject.internal.ConstructorBindingImpl$Factory@291ae[Scopes.SINGLETON]
2015-10-05 15:56:10,176  INFO StrategyManagerConfigLoader:63 global innovation switch off after iteration: 2147483647
2015-10-05 15:56:10,177  INFO GenericStrategyManager:313 added change request:  iteration=-2147483648 newWeight=0.0 strategy=RandomPlanSelector_ReRoute
2015-10-05 15:56:10,177  INFO GenericStrategyManager:313 added change request:  iteration=-2147483648 newWeight=0.0 strategy=RandomPlanSelector_TimeAllocationMutator
2015-10-05 15:56:10,178  INFO GenericStrategyManager:345 setting PlanSelectorForRemoval to class org.matsim.core.replanning.selectors.WorstPlanForRemovalSelector
2015-10-05 15:56:10,185  INFO EventsManagerImpl:144 adding Event-Handler: org.matsim.core.trafficmonitoring.TravelTimeCalculator
2015-10-05 15:56:10,185  INFO EventsManagerImpl:148   org.matsim.api.core.v01.events.handler.LinkEnterEventHandler
2015-10-05 15:56:10,185  INFO EventsManagerImpl:207     > org.matsim.api.core.v01.events.LinkEnterEvent
2015-10-05 15:56:10,186  INFO EventsManagerImpl:148   org.matsim.api.core.v01.events.handler.LinkLeaveEventHandler
2015-10-05 15:56:10,187  INFO EventsManagerImpl:207     > org.matsim.api.core.v01.events.LinkLeaveEvent
2015-10-05 15:56:10,187  INFO EventsManagerImpl:148   org.matsim.api.core.v01.events.handler.Wait2LinkEventHandler
2015-10-05 15:56:10,187  INFO EventsManagerImpl:207     > org.matsim.api.core.v01.events.Wait2LinkEvent
2015-10-05 15:56:10,187  INFO EventsManagerImpl:148   org.matsim.api.core.v01.events.handler.VehicleLeavesTrafficEventHandler
2015-10-05 15:56:10,188  INFO EventsManagerImpl:207     > org.matsim.api.core.v01.events.VehicleLeavesTrafficEvent
2015-10-05 15:56:10,188  INFO EventsManagerImpl:148   org.matsim.core.api.experimental.events.handler.VehicleArrivesAtFacilityEventHandler
2015-10-05 15:56:10,188  INFO EventsManagerImpl:207     > org.matsim.core.api.experimental.events.VehicleArrivesAtFacilityEvent
2015-10-05 15:56:10,189  INFO EventsManagerImpl:148   org.matsim.api.core.v01.events.handler.VehicleAbortsEventHandler
2015-10-05 15:56:10,189  INFO EventsManagerImpl:207     > org.matsim.api.core.v01.events.VehicleAbortsEvent
2015-10-05 15:56:10,189  INFO EventsManagerImpl:156 
2015-10-05 15:56:10,189  INFO EventsManagerImpl:144 adding Event-Handler: org.matsim.core.trafficmonitoring.TravelTimeCalculator
2015-10-05 15:56:10,190  INFO EventsManagerImpl:148   org.matsim.api.core.v01.events.handler.LinkEnterEventHandler
2015-10-05 15:56:10,190  INFO EventsManagerImpl:207     > org.matsim.api.core.v01.events.LinkEnterEvent
2015-10-05 15:56:10,190  INFO EventsManagerImpl:148   org.matsim.api.core.v01.events.handler.LinkLeaveEventHandler
2015-10-05 15:56:10,190  INFO EventsManagerImpl:207     > org.matsim.api.core.v01.events.LinkLeaveEvent
2015-10-05 15:56:10,190  INFO EventsManagerImpl:148   org.matsim.api.core.v01.events.handler.Wait2LinkEventHandler
2015-10-05 15:56:10,190  INFO EventsManagerImpl:207     > org.matsim.api.core.v01.events.Wait2LinkEvent
2015-10-05 15:56:10,190  INFO EventsManagerImpl:148   org.matsim.api.core.v01.events.handler.VehicleLeavesTrafficEventHandler
2015-10-05 15:56:10,190  INFO EventsManagerImpl:207     > org.matsim.api.core.v01.events.VehicleLeavesTrafficEvent
2015-10-05 15:56:10,190  INFO EventsManagerImpl:148   org.matsim.core.api.experimental.events.handler.VehicleArrivesAtFacilityEventHandler
2015-10-05 15:56:10,190  INFO EventsManagerImpl:207     > org.matsim.core.api.experimental.events.VehicleArrivesAtFacilityEvent
2015-10-05 15:56:10,190  INFO EventsManagerImpl:148   org.matsim.api.core.v01.events.handler.VehicleAbortsEventHandler
2015-10-05 15:56:10,190  INFO EventsManagerImpl:207     > org.matsim.api.core.v01.events.VehicleAbortsEvent
2015-10-05 15:56:10,190  INFO EventsManagerImpl:156 
2015-10-05 15:56:10,190  INFO EventsManagerImpl:144 adding Event-Handler: org.matsim.analysis.VolumesAnalyzer
2015-10-05 15:56:10,191  INFO EventsManagerImpl:148   org.matsim.api.core.v01.events.handler.LinkLeaveEventHandler
2015-10-05 15:56:10,191  INFO EventsManagerImpl:207     > org.matsim.api.core.v01.events.LinkLeaveEvent
2015-10-05 15:56:10,191  INFO EventsManagerImpl:148   org.matsim.api.core.v01.events.handler.PersonDepartureEventHandler
2015-10-05 15:56:10,191  INFO EventsManagerImpl:207     > org.matsim.api.core.v01.events.PersonDepartureEvent
2015-10-05 15:56:10,191  INFO EventsManagerImpl:156 
2015-10-05 15:56:10,191  INFO EventsManagerImpl:144 adding Event-Handler: org.matsim.analysis.VolumesAnalyzer
2015-10-05 15:56:10,191  INFO EventsManagerImpl:148   org.matsim.api.core.v01.events.handler.LinkLeaveEventHandler
2015-10-05 15:56:10,191  INFO EventsManagerImpl:207     > org.matsim.api.core.v01.events.LinkLeaveEvent
2015-10-05 15:56:10,191  INFO EventsManagerImpl:148   org.matsim.api.core.v01.events.handler.PersonDepartureEventHandler
2015-10-05 15:56:10,191  INFO EventsManagerImpl:207     > org.matsim.api.core.v01.events.PersonDepartureEvent
2015-10-05 15:56:10,191  INFO EventsManagerImpl:156 
2015-10-05 15:56:10,191  INFO EventsManagerImpl:144 adding Event-Handler: org.matsim.analysis.CalcLegTimes
2015-10-05 15:56:10,191  INFO EventsManagerImpl:148   org.matsim.api.core.v01.events.handler.PersonDepartureEventHandler
2015-10-05 15:56:10,192  INFO EventsManagerImpl:207     > org.matsim.api.core.v01.events.PersonDepartureEvent
2015-10-05 15:56:10,192  INFO EventsManagerImpl:148   org.matsim.api.core.v01.events.handler.PersonArrivalEventHandler
2015-10-05 15:56:10,192  INFO EventsManagerImpl:207     > org.matsim.api.core.v01.events.PersonArrivalEvent
2015-10-05 15:56:10,192  INFO EventsManagerImpl:148   org.matsim.api.core.v01.events.handler.ActivityEndEventHandler
2015-10-05 15:56:10,192  INFO EventsManagerImpl:207     > org.matsim.api.core.v01.events.ActivityEndEvent
2015-10-05 15:56:10,192  INFO EventsManagerImpl:148   org.matsim.api.core.v01.events.handler.ActivityStartEventHandler
2015-10-05 15:56:10,192  INFO EventsManagerImpl:207     > org.matsim.api.core.v01.events.ActivityStartEvent
2015-10-05 15:56:10,192  INFO EventsManagerImpl:156 
2015-10-05 15:56:10,192  INFO EventsManagerImpl:144 adding Event-Handler: org.matsim.analysis.CalcLegTimes
2015-10-05 15:56:10,192  INFO EventsManagerImpl:148   org.matsim.api.core.v01.events.handler.PersonDepartureEventHandler
2015-10-05 15:56:10,193  INFO EventsManagerImpl:207     > org.matsim.api.core.v01.events.PersonDepartureEvent
2015-10-05 15:56:10,193  INFO EventsManagerImpl:148   org.matsim.api.core.v01.events.handler.PersonArrivalEventHandler
2015-10-05 15:56:10,193  INFO EventsManagerImpl:207     > org.matsim.api.core.v01.events.PersonArrivalEvent
2015-10-05 15:56:10,193  INFO EventsManagerImpl:148   org.matsim.api.core.v01.events.handler.ActivityEndEventHandler
2015-10-05 15:56:10,193  INFO EventsManagerImpl:207     > org.matsim.api.core.v01.events.ActivityEndEvent
2015-10-05 15:56:10,193  INFO EventsManagerImpl:148   org.matsim.api.core.v01.events.handler.ActivityStartEventHandler
2015-10-05 15:56:10,193  INFO EventsManagerImpl:207     > org.matsim.api.core.v01.events.ActivityStartEvent
2015-10-05 15:56:10,193  INFO EventsManagerImpl:156 
2015-10-05 15:56:10,195  INFO CalcLinkStats:148  resetting `count' to zero.  This info is here since we want to check when this is happening during normal simulation runs.  kai, jan'11
2015-10-05 15:56:10,204  INFO EventsManagerImpl:144 adding Event-Handler: org.matsim.analysis.LegHistogram
2015-10-05 15:56:10,205  INFO EventsManagerImpl:148   org.matsim.api.core.v01.events.handler.PersonDepartureEventHandler
2015-10-05 15:56:10,205  INFO EventsManagerImpl:207     > org.matsim.api.core.v01.events.PersonDepartureEvent
2015-10-05 15:56:10,206  INFO EventsManagerImpl:148   org.matsim.api.core.v01.events.handler.PersonArrivalEventHandler
2015-10-05 15:56:10,206  INFO EventsManagerImpl:207     > org.matsim.api.core.v01.events.PersonArrivalEvent
2015-10-05 15:56:10,206  INFO EventsManagerImpl:148   org.matsim.api.core.v01.events.handler.PersonStuckEventHandler
2015-10-05 15:56:10,206  INFO EventsManagerImpl:207     > org.matsim.api.core.v01.events.PersonStuckEvent
2015-10-05 15:56:10,206  INFO EventsManagerImpl:156 
2015-10-05 15:56:10,206  INFO EventsManagerImpl:144 adding Event-Handler: org.matsim.analysis.LegHistogram
2015-10-05 15:56:10,207  INFO EventsManagerImpl:148   org.matsim.api.core.v01.events.handler.PersonDepartureEventHandler
2015-10-05 15:56:10,207  INFO EventsManagerImpl:207     > org.matsim.api.core.v01.events.PersonDepartureEvent
2015-10-05 15:56:10,207  INFO EventsManagerImpl:148   org.matsim.api.core.v01.events.handler.PersonArrivalEventHandler
2015-10-05 15:56:10,207  INFO EventsManagerImpl:207     > org.matsim.api.core.v01.events.PersonArrivalEvent
2015-10-05 15:56:10,207  INFO EventsManagerImpl:148   org.matsim.api.core.v01.events.handler.PersonStuckEventHandler
2015-10-05 15:56:10,207  INFO EventsManagerImpl:207     > org.matsim.api.core.v01.events.PersonStuckEvent
2015-10-05 15:56:10,207  INFO EventsManagerImpl:156 
2015-10-05 15:56:10,208  INFO ControlerListenerManager:108 calling notifyStartup on org.matsim.counts.CountsControlerListener
2015-10-05 15:56:10,209  INFO ControlerListenerManager:108 calling notifyStartup on org.matsim.analysis.ScoreStatsControlerListener
2015-10-05 15:56:10,209  INFO ControlerListenerManager:111 all ControlerStartupListeners called.
2015-10-05 15:56:10,210  INFO ControlerUtils:57 config dump before iterations start
2015-10-05 15:56:10,220  INFO ControlerUtils:61 

<?xml version="1.0" encoding="UTF-8"?>
<!DOCTYPE config SYSTEM "http://www.matsim.org/files/dtd/config_v2.dtd">
<config>

<!-- ====================================================================== -->

	<module name="TimeAllocationMutator" >
		<param name="mutationAffectsDuration" value="true" />

		<!-- Default:1800.0; Defines how many seconds a time mutation can maximally shift a time. -->
		<param name="mutationRange" value="1800.0" />
	</module>

<!-- ====================================================================== -->

	<module name="controler" >

		<!-- Sets whether graphs showing some analyses should automatically be generated during the simulation. The generation of graphs usually takes a small amount of time that does not have any weight in big simulations, but add a significant overhead in smaller runs or in test cases where the graphical output is not even requested. -->
		<param name="createGraphs" value="true" />

		<!-- Default=false;  -->
		<param name="enableLinkToLinkRouting" value="false" />

		<!-- Default=xml; Specifies the file format for writing events. Currently supported: txt, xml.
		Multiple values can be specified separated by commas (','). -->
		<param name="eventsFileFormat" value="xml" />

		<!-- Default=0;  -->
		<param name="firstIteration" value="0" />

		<!-- Default=1000;  -->
		<param name="lastIteration" value="1" />

		<!-- Defines which mobility simulation will be used. Currently supported: qsim JDEQSim 
		Depending on the chosen mobsim, you'll have to add additional config modules to configure the corresponding mobsim.
		For 'qsim', add a module 'qsim' to the config. -->
		<param name="mobsim" value="qsim" />

		<param name="outputDirectory" value="./output" />

		<!-- Possible values: failIfDirectoryExists, overwriteExistingFiles, deleteDirectoryIfExists -->
		<param name="overwriteFiles" value="failIfDirectoryExists" />

		<!-- The type of routing (least cost path) algorithm used, may have the values: Dijkstra, FastDijkstra, AStarLandmarks or FastAStarLandmarks -->
		<param name="routingAlgorithmType" value="Dijkstra" />

		<!-- An identifier for the current run which is used as prefix for output files and mentioned in output xml files etc. -->
		<param name="runId" value="null" />

		<!-- Comma-separated list of visualizer output file formats. `transims', `googleearth', and `otfvis'. -->
		<param name="snapshotFormat" value="" />

		<!-- iterationNumber % writeEventsInterval == 0 defines in which iterations events are written to a file. `0' disables events writing completely. -->
		<param name="writeEventsInterval" value="1" />

		<!-- iterationNumber % writePlansInterval == 0 defines (hopefully) in which iterations plans are written to a file. `0' disables plans writing completely.  Some plans in early iterations are always written -->
		<param name="writePlansInterval" value="1" />

		<!-- iterationNumber % writeSnapshotsInterval == 0 defines in which iterations snapshots are written to a file. `0' disables snapshots writing completely -->
		<param name="writeSnapshotsInterval" value="1" />
	</module>

<!-- ====================================================================== -->

	<module name="counts" >

		<!-- Transport modes that will be respected for the counts comparison. 'car' is default, which includes also bussed from the pt simulation module. Use this parameter in combination with 'filterModes' = true! -->
		<param name="analyzedModes" value="car" />

		<!-- Specifies over how many iterations the link volumes should be averaged that are used for the counts comparison. Use 1 or 0 to only use the link volumes of a single iteration. This values cannot be larger than the value specified for writeCountsInterval -->
		<param name="averageCountsOverIterations" value="5" />

		<!-- factor by which to re-scale the simulated values.  necessary when simulation runs with something different from 100%.  needs to be adapted manually -->
		<param name="countsScaleFactor" value="1.0" />

		<!-- distance to distanceFilterCenterNode to include counting stations. The unit of distance is the Euclidean distance implied by the coordinate system -->
		<param name="distanceFilter" value="null" />

		<!-- node id for center node of distance filter -->
		<param name="distanceFilterCenterNode" value="null" />

		<!-- If true, link counts from legs performed on modes not included in the 'analyzedModes' parameter are ignored. -->
		<param name="filterModes" value="false" />

		<!-- input file name to counts package -->
		<param name="inputCountsFile" value="null" />

		<!-- possible values: `html', `kml', `txt', `all' -->
		<param name="outputformat" value="txt" />

		<!-- Specifies how often the counts comparison should be calculated and written. -->
		<param name="writeCountsInterval" value="10" />
	</module>

<!-- ====================================================================== -->

	<module name="facilities" >
		<param name="inputFacilitiesFile" value="null" />
		<param name="inputFacilityAttributesFile" value="null" />
	</module>

<!-- ====================================================================== -->

	<module name="global" >
		<param name="coordinateSystem" value="EPSG:3115" />

		<!-- "global" number of threads.  This number is used, e.g., for replanning, but NOT in the mobsim.  This can typically be set to as many cores as you have available, or possibly even slightly more. -->
		<param name="numberOfThreads" value="8" />

		<param name="randomSeed" value="5399998864266990000" />
	</module>

<!-- ====================================================================== -->

	<module name="households" >
		<param name="inputFile" value="null" />
		<param name="inputHouseholdAttributesFile" value="null" />
	</module>

<!-- ====================================================================== -->

	<module name="linkStats" >

		<!-- Specifies over how many iterations the link volumes should be averaged that are used for the link statistics. Use 1 or 0 to only use the link volumes of a single iteration. This values cannot be larger than the value specified for writeLinkStatsInterval -->
		<param name="averageLinkStatsOverIterations" value="1" />

		<!-- Specifies how often the link stats should be calculated and written. Use 0 to disable the generation of link stats. -->
		<param name="writeLinkStatsInterval" value="10" />
	</module>

<!-- ====================================================================== -->

	<module name="network" >
		<param name="inputChangeEventsFile" value="null" />
		<param name="inputNetworkFile" value="./input/specialNetwork.xml" />
		<param name="laneDefinitionsFile" value="null" />
		<param name="timeVariantNetwork" value="false" />
	</module>

<!-- ====================================================================== -->

	<module name="parallelEventHandling" >

		<!-- Estimated number of events during mobsim run. An optional optimization hint for the framework. -->
		<param name="estimatedNumberOfEvents" value="null" />

		<!-- Number of threads for parallel events handler. 0 or null means the framework decides by itself. -->
		<param name="numberOfThreads" value="null" />

		<param name="synchronizeOnSimSteps" value="true" />
	</module>

<!-- ====================================================================== -->

	<module name="planCalcScore" >

		<!-- logit model scale parameter. default: 1.  Has name and default value for historical reasons (see Bryan Raney's phd thesis). -->
		<param name="BrainExpBeta" value="2.0" />

		<param name="PathSizeLogitBeta" value="1.0" />

		<!-- fraction of iterations at which MSA score averaging is started. The matsim theory department suggests to use this together with switching off choice set innovation (where a similar switch exists), but it has not been tested yet. -->
		<param name="fractionOfIterationsToStartScoreMSA" value="null" />

		<!-- new_score = (1-learningRate)*old_score + learningRate * score_from_mobsim.  learning rates close to zero emulate score averaging, but slow down initial convergence -->
		<param name="learningRate" value="1.0" />

		<!-- There used to be a plateau between duration=0 and duration=zeroUtilityDuration. This caused durations to evolve to zero once they were below zeroUtilityDuration, causing problems.  Only use this switch if you need to be backwards compatible with some old results.  (changed nov'13) -->
		<param name="usingOldScoringBelowZeroUtilityDuration" value="false" />

		<!-- write a plans file in each iteration directory which contains what each agent actually did, and the score it received. -->
		<param name="writeExperiencedPlans" value="false" />

		<parameterset type="scoringParameters" >
			<param name="earlyDeparture" value="0.0" />
			<param name="lateArrival" value="-18.0" />
			<param name="marginalUtilityOfMoney" value="1.0" />
			<param name="performing" value="6.0" />
			<param name="subpopulation" value="null" />
			<param name="utilityOfLineSwitch" value="-1.0" />
			<param name="waiting" value="0.0" />
			<param name="waitingPt" value="-6.0" />

			<parameterset type="activityParams" >
				<param name="activityType" value="h" />
				<param name="closingTime" value="undefined" />
				<param name="earliestEndTime" value="undefined" />
				<param name="latestStartTime" value="undefined" />
				<param name="minimalDuration" value="08:00:00" />
				<param name="openingTime" value="undefined" />
				<param name="priority" value="1.0" />
				<param name="scoringThisActivityAtAll" value="true" />
				<param name="typicalDuration" value="12:00:00" />

				<!-- method to compute score at typical duration.  Use uniform for backwards compatibility (all activities same score; higher proba to drop long acts). -->
				<param name="typicalDurationScoreComputation" value="uniform" />
			</parameterset>

			<parameterset type="activityParams" >
				<param name="activityType" value="w" />
				<param name="closingTime" value="18:00:00" />
				<param name="earliestEndTime" value="16:00:00" />
				<param name="latestStartTime" value="09:00:00" />
				<param name="minimalDuration" value="06:00:00" />
				<param name="openingTime" value="07:00:00" />
				<param name="priority" value="1.0" />
				<param name="scoringThisActivityAtAll" value="true" />
				<param name="typicalDuration" value="08:00:00" />

				<!-- method to compute score at typical duration.  Use uniform for backwards compatibility (all activities same score; higher proba to drop long acts). -->
				<param name="typicalDurationScoreComputation" value="uniform" />
			</parameterset>

			<parameterset type="activityParams" >
				<param name="activityType" value="pt interaction" />
				<param name="closingTime" value="00:00:00" />
				<param name="earliestEndTime" value="undefined" />
				<param name="latestStartTime" value="undefined" />
				<param name="minimalDuration" value="undefined" />
				<param name="openingTime" value="00:00:00" />
				<param name="priority" value="1.0" />
				<param name="scoringThisActivityAtAll" value="true" />
				<param name="typicalDuration" value="00:02:00" />

				<!-- method to compute score at typical duration.  Use uniform for backwards compatibility (all activities same score; higher proba to drop long acts). -->
				<param name="typicalDurationScoreComputation" value="uniform" />
			</parameterset>

			<parameterset type="modeParams" >

				<!-- [utils] alternative-specific constant.  no guarantee that this is used anywhere. default=0 to be backwards compatible for the time being -->
				<param name="constant" value="0.0" />

				<!-- [utils/m] utility of walking per m, normally negative.  this is on top of the time (dis)utility. -->
				<param name="marginalUtilityOfDistance_util_m" value="0.0" />

				<!-- [utils/hr] additional marginal utility of traveling.  normally negative.  this comes on top of the opportunity cost of time -->
				<param name="marginalUtilityOfTraveling_util_hr" value="-6.0" />

				<param name="mode" value="car" />
				<param name="monetaryDistanceRate" value="0.0" />
			</parameterset>

			<parameterset type="modeParams" >

				<!-- [utils] alternative-specific constant.  no guarantee that this is used anywhere. default=0 to be backwards compatible for the time being -->
				<param name="constant" value="0.0" />

				<!-- [utils/m] utility of walking per m, normally negative.  this is on top of the time (dis)utility. -->
				<param name="marginalUtilityOfDistance_util_m" value="0.0" />

				<!-- [utils/hr] additional marginal utility of traveling.  normally negative.  this comes on top of the opportunity cost of time -->
				<param name="marginalUtilityOfTraveling_util_hr" value="-6.0" />

				<param name="mode" value="pt" />
				<param name="monetaryDistanceRate" value="0.0" />
			</parameterset>

			<parameterset type="modeParams" >

				<!-- [utils] alternative-specific constant.  no guarantee that this is used anywhere. default=0 to be backwards compatible for the time being -->
				<param name="constant" value="0.0" />

				<!-- [utils/m] utility of walking per m, normally negative.  this is on top of the time (dis)utility. -->
				<param name="marginalUtilityOfDistance_util_m" value="0.0" />

				<!-- [utils/hr] additional marginal utility of traveling.  normally negative.  this comes on top of the opportunity cost of time -->
				<param name="marginalUtilityOfTraveling_util_hr" value="-6.0" />

				<param name="mode" value="walk" />
				<param name="monetaryDistanceRate" value="0.0" />
			</parameterset>

			<parameterset type="modeParams" >

				<!-- [utils] alternative-specific constant.  no guarantee that this is used anywhere. default=0 to be backwards compatible for the time being -->
				<param name="constant" value="0.0" />

				<!-- [utils/m] utility of walking per m, normally negative.  this is on top of the time (dis)utility. -->
				<param name="marginalUtilityOfDistance_util_m" value="0.0" />

				<!-- [utils/hr] additional marginal utility of traveling.  normally negative.  this comes on top of the opportunity cost of time -->
				<param name="marginalUtilityOfTraveling_util_hr" value="-6.0" />

				<param name="mode" value="bike" />
				<param name="monetaryDistanceRate" value="0.0" />
			</parameterset>

			<parameterset type="modeParams" >

				<!-- [utils] alternative-specific constant.  no guarantee that this is used anywhere. default=0 to be backwards compatible for the time being -->
				<param name="constant" value="0.0" />

				<!-- [utils/m] utility of walking per m, normally negative.  this is on top of the time (dis)utility. -->
				<param name="marginalUtilityOfDistance_util_m" value="0.0" />

				<!-- [utils/hr] additional marginal utility of traveling.  normally negative.  this comes on top of the opportunity cost of time -->
				<param name="marginalUtilityOfTraveling_util_hr" value="-6.0" />

				<param name="mode" value="other" />
				<param name="monetaryDistanceRate" value="0.0" />
			</parameterset>
		</parameterset>
	</module>

<!-- ====================================================================== -->

	<module name="plans" >

		<!-- String: minOfDurationAndEndTime tryEndTimeThenDuration endTimeOnly. Anything besides minOfDurationAndEndTime will internally use a different (simpler) version of the TimeAllocationMutator. -->
		<param name="activityDurationInterpretation" value="tryEndTimeThenDuration" />

		<!-- Path to a file containing person attributes (required file format: ObjectAttributes). -->
		<param name="inputPersonAttributesFile" value="null" />

		<param name="inputPlansFile" value="./input/plans_sitm_cali_01.04.2014_troncal.xml" />

		<!-- Defines how routes are stored in memory. Currently supported: LinkNetworkRoute, CompressedNetworkRoute. -->
		<param name="networkRouteType" value="LinkNetworkRoute" />

		<!-- (not tested) will remove plan attributes that are presumably not used, such as activityStartTime. default=false -->
		<param name="removingUnnecessaryPlanAttributes" value="false" />

		<!-- Name of the (Object)Attribute defining the subpopulation to which pertains a Person (as freight, through traffic, etc.). The attribute must be of String type. -->
		<param name="subpopulationAttributeName" value="subpopulation" />
	</module>

<!-- ====================================================================== -->

	<module name="planscalcroute" >

		<!-- All the modes for which the router is supposed to generate network routes (like car) -->
		<param name="networkModes" value="car" />

		<parameterset type="teleportedModeParameters" >
			<param name="beelineDistanceFactor" value="1.3" />
			<param name="mode" value="bike" />

			<!-- Free-speed factor for a teleported mode. Travel time = teleportedModeFreespeedFactor * <freespeed car travel time>. Insert a line like this for every such mode. Please do not set teleportedModeFreespeedFactor as well as teleportedModeSpeed for the same mode, but if you do, +teleportedModeFreespeedFactor wins over teleportedModeSpeed. -->
			<param name="teleportedModeFreespeedFactor" value="null" />

			<!-- Speed for a teleported mode. Travel time = (<beeline distance> * beelineDistanceFactor) / teleportedModeSpeed. Insert a line like this for every such mode. -->
			<param name="teleportedModeSpeed" value="4.166666666666667" />
		</parameterset>

		<parameterset type="teleportedModeParameters" >
			<param name="beelineDistanceFactor" value="1.3" />
			<param name="mode" value="walk" />

			<!-- Free-speed factor for a teleported mode. Travel time = teleportedModeFreespeedFactor * <freespeed car travel time>. Insert a line like this for every such mode. Please do not set teleportedModeFreespeedFactor as well as teleportedModeSpeed for the same mode, but if you do, +teleportedModeFreespeedFactor wins over teleportedModeSpeed. -->
			<param name="teleportedModeFreespeedFactor" value="null" />

			<!-- Speed for a teleported mode. Travel time = (<beeline distance> * beelineDistanceFactor) / teleportedModeSpeed. Insert a line like this for every such mode. -->
			<param name="teleportedModeSpeed" value="0.8333333333333333" />
		</parameterset>

		<parameterset type="teleportedModeParameters" >
			<param name="beelineDistanceFactor" value="1.3" />
			<param name="mode" value="undefined" />

			<!-- Free-speed factor for a teleported mode. Travel time = teleportedModeFreespeedFactor * <freespeed car travel time>. Insert a line like this for every such mode. Please do not set teleportedModeFreespeedFactor as well as teleportedModeSpeed for the same mode, but if you do, +teleportedModeFreespeedFactor wins over teleportedModeSpeed. -->
			<param name="teleportedModeFreespeedFactor" value="null" />

			<!-- Speed for a teleported mode. Travel time = (<beeline distance> * beelineDistanceFactor) / teleportedModeSpeed. Insert a line like this for every such mode. -->
			<param name="teleportedModeSpeed" value="13.88888888888889" />
		</parameterset>

		<parameterset type="teleportedModeParameters" >
			<param name="beelineDistanceFactor" value="1.3" />
			<param name="mode" value="ride" />

			<!-- Free-speed factor for a teleported mode. Travel time = teleportedModeFreespeedFactor * <freespeed car travel time>. Insert a line like this for every such mode. Please do not set teleportedModeFreespeedFactor as well as teleportedModeSpeed for the same mode, but if you do, +teleportedModeFreespeedFactor wins over teleportedModeSpeed. -->
			<param name="teleportedModeFreespeedFactor" value="1.0" />

			<!-- Speed for a teleported mode. Travel time = (<beeline distance> * beelineDistanceFactor) / teleportedModeSpeed. Insert a line like this for every such mode. -->
			<param name="teleportedModeSpeed" value="null" />
		</parameterset>

		<parameterset type="teleportedModeParameters" >
			<param name="beelineDistanceFactor" value="1.3" />
			<param name="mode" value="pt" />

			<!-- Free-speed factor for a teleported mode. Travel time = teleportedModeFreespeedFactor * <freespeed car travel time>. Insert a line like this for every such mode. Please do not set teleportedModeFreespeedFactor as well as teleportedModeSpeed for the same mode, but if you do, +teleportedModeFreespeedFactor wins over teleportedModeSpeed. -->
			<param name="teleportedModeFreespeedFactor" value="2.0" />

			<!-- Speed for a teleported mode. Travel time = (<beeline distance> * beelineDistanceFactor) / teleportedModeSpeed. Insert a line like this for every such mode. -->
			<param name="teleportedModeSpeed" value="null" />
		</parameterset>
	</module>

<!-- ====================================================================== -->

	<module name="ptCounts" >

		<!-- factor by which to re-scale the simulated values.  necessary when simulation runs with something different from 100%.  needs to be adapted manually -->
		<param name="countsScaleFactor" value="1.0" />

		<!-- distance to distanceFilterCenterNode to include counting stations. The unit of distance is the Euclidean distance implied by the coordinate system -->
		<param name="distanceFilter" value="null" />

		<!-- node id for center node of distance filter -->
		<param name="distanceFilterCenterNode" value="null" />

		<!-- input file containing the alighting (getting off) counts for pt -->
		<param name="inputAlightCountsFile" value="null" />

		<!-- input file containing the boarding (getting on) counts for pt -->
		<param name="inputBoardCountsFile" value="null" />

		<!-- input file containing the occupancy counts for pt -->
		<param name="inputOccupancyCountsFile" value="null" />

		<!-- possible values: `html', `kml', `txt', `all' -->
		<param name="outputformat" value="null" />

		<!-- every how many iterations (starting with 0) counts comparisons are generated -->
		<param name="ptCountsInterval" value="10" />
	</module>

<!-- ====================================================================== -->

	<module name="qsim" >
		<param name="endTime" value="24:00:00" />
		<param name="flowCapacityFactor" value="1.0" />

		<!-- decides if waiting vehicles enter the network after or before the already driving vehicles were moved. Default: false -->
		<param name="insertingWaitingVehiclesBeforeDrivingVehicles" value="false" />

		<!-- default: FIFO; options: FIFO PassingQ -->
		<param name="linkDynamics" value="PassingQ" />

		<!-- The (initial) width of the links of the network. Use positive floating point values. -->
		<param name="linkWidth" value="30.0" />

		<!-- [comma-separated list] Defines which modes are congested modes. Technically, these are the modes that the departure handler of the netsimengine handles.  Effective cell size, effective lane width, flow capacity factor, and storage capacity factor need to be set with diligence.  Need to be vehicular modes to make sense. -->
		<param name="mainMode" value="car" />

		<!-- Shortens a link in the visualization, i.e. its start and end point are moved into towards the center. Does not affect traffic flow.  -->
		<param name="nodeOffset" value="0.0" />

		<!-- Number of threads used for the QSim.  Note that this setting is independent from the "global" threads setting.  In contrast to earlier versions, the non-parallel special version is no longer there. -->
		<param name="numberOfThreads" value="1" />

		<!-- Boolean. `true': stuck vehicles are removed, aborting the plan; `false': stuck vehicles are forced into the next link. `false' is probably the better choice. -->
		<param name="removeStuckVehicles" value="false" />

		<!-- Options: nullmaxOfStarttimeAndEarliestActivityEnd onlyUseStarttime  -->
		<param name="simStarttimeInterpretation" value="maxOfStarttimeAndEarliestActivityEnd" />

		<!-- snapshotStyle. One of: equiDist queue withHoles  -->
		<param name="snapshotStyle" value="equiDist" />

		<param name="snapshotperiod" value="00:00:00" />
		<param name="startTime" value="00:00:00" />
		<param name="storageCapacityFactor" value="1.0" />

		<!-- time in seconds.  Time after which the frontmost vehicle on a link is called `stuck' if it does not move. -->
		<param name="stuckTime" value="10.0" />

		<param name="timeStepSize" value="00:00:01" />

		<!-- options: nullqueue withHoles  -->
		<param name="trafficDynamics" value="queue" />

		<!-- [DEPRECATED, usevehiclesSource instead]  If this is true, we do not expect (or use) vehicles from the vehicles database, but create vehicles on the fly with default properties. -->
		<param name="useDefaultVehicles" value="true" />

		<!-- Set this parameter to true if lanes should be used, false if not. -->
		<param name="useLanes" value="false" />

		<!-- If a route does not reference a vehicle, agents will use the vehicle with the same id as their own. -->
		<param name="usePersonIdForMissingVehicleId" value="true" />

		<!-- normally, the qsim accumulates fractional flows up to one flow unit.  This is impractical with  with smaller PCEs.  If this switch is set to true, cars can enter a link if the accumulated flow is >=0, and the accumulated flow can go into negative.  Will probably become the default eventually. -->
		<param name="usingFastCapacityUpdate" value="false" />

		<!-- if the qsim should use as many runners as there are threads (Christoph's dissertation version) or more of them, together with a thread pool (seems to be faster in some situations, but is not tested). -->
		<param name="usingThreadpool" value="true" />

		<!-- Defines what happens if an agent wants to depart, but the specified vehicle is not available. One of: nullteleport wait exception  -->
		<param name="vehicleBehavior" value="teleport" />

		<!-- If vehicles should all be the same default vehicle, or come from the vehicles file, or something else.  Possible values:  defaultVehicle fromVehiclesData -->
		<param name="vehiclesSource" value="defaultVehicle" />
	</module>

<!-- ====================================================================== -->

	<module name="scenario" >
	</module>

<!-- ====================================================================== -->

	<module name="strategy" >

		<!-- the external executable will be called with a config file as argument.  This is the pathname to a possible skeleton config, to which additional information will be added.  Can be null. -->
		<param name="ExternalExeConfigTemplate" value="null" />

		<!-- time out value (in seconds) after which matsim will consider the external strategy as failed -->
		<param name="ExternalExeTimeOut" value="3600" />

		<!-- root directory for temporary files generated by the external executable. Provided as a service; I don't think this is used by MATSim. -->
		<param name="ExternalExeTmpFileRootDir" value="null" />

		<!-- fraction of iterations where innovative strategies are switched off.  Something link 0.8 should be good.  E.g. if you run from iteration 400 to iteration 500, innovation is switched off at iteration 480 -->
		<param name="fractionOfIterationsToDisableInnovation" value="Infinity" />

		<!-- maximum number of plans per agent.  ``0'' means ``infinity''.  Currently (2010), ``5'' is a good number -->
		<param name="maxAgentPlanMemorySize" value="4" />

		<!-- name of PlanSelector for plans removal.  Possible defaults: WorstPlanSelector SelectRandom SelectExpBetaForRemoval ChangeExpBetaForRemoval PathSizeLogitSelectorForRemoval . The current default, WorstPlanSelector is not a good choice from a discrete choice theoretical perspective. Alternatives, however, have not been systematically tested. kai, feb'12 -->
		<param name="planSelectorForRemoval" value="WorstPlanSelector" />

		<parameterset type="strategysettings" >

			<!-- iteration after which strategy will be disabled.  most useful for ``innovative'' strategies (new routes, new times, ...). Normally, better use fractionOfIterationsToDisableInnovation -->
			<param name="disableAfterIteration" value="-1" />

			<!-- path to external executable (if applicable) -->
			<param name="executionPath" value="null" />

			<!-- name of strategy.  Possible default names: KeepLastSelected BestScore ChangeExpBeta SelectExpBeta SelectRandom SelectPathSizeLogit  (selectors), ReRoute TimeAllocationMutator ChangeLegMode TimeAllocationMutator_ReRoute ChangeSingleLegMode ChangeSingleTripMode SubtourModeChoice ChangeTripMode TripSubtourModeChoice  (innovative strategies). -->
			<param name="strategyName" value="BestScore" />

			<!-- subpopulation to which the strategy applies. "null" refers to the default population, that is, the set of persons for which no explicit subpopulation is defined (ie no subpopulation attribute) -->
			<param name="subpopulation" value="null" />

			<!-- weight of a strategy: for each agent, a strategy will be selected with a probability proportional to its weight -->
			<param name="weight" value="0.7" />
		</parameterset>

		<parameterset type="strategysettings" >

			<!-- iteration after which strategy will be disabled.  most useful for ``innovative'' strategies (new routes, new times, ...). Normally, better use fractionOfIterationsToDisableInnovation -->
			<param name="disableAfterIteration" value="-1" />

			<!-- path to external executable (if applicable) -->
			<param name="executionPath" value="null" />

			<!-- name of strategy.  Possible default names: KeepLastSelected BestScore ChangeExpBeta SelectExpBeta SelectRandom SelectPathSizeLogit  (selectors), ReRoute TimeAllocationMutator ChangeLegMode TimeAllocationMutator_ReRoute ChangeSingleLegMode ChangeSingleTripMode SubtourModeChoice ChangeTripMode TripSubtourModeChoice  (innovative strategies). -->
			<param name="strategyName" value="ReRoute" />

			<!-- subpopulation to which the strategy applies. "null" refers to the default population, that is, the set of persons for which no explicit subpopulation is defined (ie no subpopulation attribute) -->
			<param name="subpopulation" value="null" />

			<!-- weight of a strategy: for each agent, a strategy will be selected with a probability proportional to its weight -->
			<param name="weight" value="0.1" />
		</parameterset>

		<parameterset type="strategysettings" >

			<!-- iteration after which strategy will be disabled.  most useful for ``innovative'' strategies (new routes, new times, ...). Normally, better use fractionOfIterationsToDisableInnovation -->
			<param name="disableAfterIteration" value="-1" />

			<!-- path to external executable (if applicable) -->
			<param name="executionPath" value="null" />

			<!-- name of strategy.  Possible default names: KeepLastSelected BestScore ChangeExpBeta SelectExpBeta SelectRandom SelectPathSizeLogit  (selectors), ReRoute TimeAllocationMutator ChangeLegMode TimeAllocationMutator_ReRoute ChangeSingleLegMode ChangeSingleTripMode SubtourModeChoice ChangeTripMode TripSubtourModeChoice  (innovative strategies). -->
			<param name="strategyName" value="TimeAllocationMutator" />

			<!-- subpopulation to which the strategy applies. "null" refers to the default population, that is, the set of persons for which no explicit subpopulation is defined (ie no subpopulation attribute) -->
			<param name="subpopulation" value="null" />

			<!-- weight of a strategy: for each agent, a strategy will be selected with a probability proportional to its weight -->
			<param name="weight" value="0.2" />
		</parameterset>
	</module>

<!-- ====================================================================== -->

	<module name="subtourModeChoice" >

		<!-- Defines the chain-based modes, seperated by commas -->
		<param name="chainBasedModes" value="car,bike" />

		<!-- Defines whether car availability must be considered or not. A agent has no car only if it has no license, or never access to a car -->
		<param name="considerCarAvailability" value="false" />

		<!-- Defines all the modes available, including chain-based modes, seperated by commas -->
		<param name="modes" value="car,pt,bike,walk" />
	</module>

<!-- ====================================================================== -->

	<module name="transit" >

		<!-- Optional input file containing additional attributes for transit lines, stored as ObjectAttributes. -->
		<param name="transitLinesAttributesFile" value="null" />

		<!-- Comma-separated list of transportation modes that are handled as transit. Defaults to 'pt'. -->
		<param name="transitModes" value="pt" />

		<!-- Input file containing the transit schedule to be simulated. -->
		<param name="transitScheduleFile" value="./input/transitSchedule.xml" />

		<!-- Optional input file containing additional attributes for transit stop facilities, stored as ObjectAttributes. -->
		<param name="transitStopsAttributesFile" value="null" />

		<!-- Set this parameter to true if transit should be simulated, false if not. -->
		<param name="useTransit" value="true" />

		<!-- Input file containing the vehicles used by the departures in the transit schedule. -->
		<param name="vehiclesFile" value="./input/transitVehicles.xml" />
	</module>

<!-- ====================================================================== -->

	<module name="transitRouter" >

		<!-- additional time the router allocates when a line switch happens. Can be interpreted as a 'safety' time that agents need to safely transfer from one line to another -->
		<param name="additionalTransferTime" value="0.0" />

		<!-- step size to increase searchRadius if no stops are found -->
		<param name="extensionRadius" value="200.0" />

		<!-- maximum beeline distance between stops that agents could transfer to by walking -->
		<param name="maxBeelineWalkConnectionDistance" value="100.0" />

		<!-- the radius in which stop locations are searched, given a start or target coordinate -->
		<param name="searchRadius" value="1000.0" />
	</module>

<!-- ====================================================================== -->

	<module name="travelTimeCalculator" >

		<!-- Transport modes that will be respected by the travel time collector. 'car' is default, which includes also bussed from the pt simulation module. Use this parameter in combination with 'filterModes' = true! -->
		<param name="analyzedModes" value="car" />

		<param name="calculateLinkToLinkTravelTimes" value="false" />
		<param name="calculateLinkTravelTimes" value="true" />

		<!-- If true, link travel times from legs performed on modes not included in the 'analyzedModes' parameter are ignored. -->
		<param name="filterModes" value="false" />

		<!-- How to deal with congested time bins that have no link entry events. `optimistic' assumes free speed (too optimistic); 'experimental_LastMile' is experimental and probably too pessimistic. -->
		<param name="travelTimeAggregator" value="optimistic" />

		<!-- The size of the time bin (in sec) into which the link travel times are aggregated for the router -->
		<param name="travelTimeBinSize" value="900" />

		<!-- possible values: nullTravelTimeCalculatorArray TravelTimeCalculatorHashMap  -->
		<param name="travelTimeCalculator" value="TravelTimeCalculatorArray" />

		<!-- How to deal with link entry times at different positions during the time bin. Currently supported: average, linearinterpolation -->
		<param name="travelTimeGetter" value="average" />
	</module>

<!-- ====================================================================== -->

	<module name="vehicles" >
		<param name="vehiclesFile" value="null" />
	</module>

<!-- ====================================================================== -->

	<module name="vspExperimental" >

		<!-- (do not use) Set this filename of MZ05 daily analysis -->
		<param name="inputMZ05File" value="" />

		<!-- (do not use except of you have to) There was a problem with pt interaction scoring.  Some people solved it by overwriting the parameters of the pt interaction activity type.  Doing this now throws an Exception.  If you still insist on doing this, set the following to true. -->
		<param name="isAbleToOverwritePtInteractionParams" value="false" />

		<param name="isGeneratingBoardingDeniedEvent" value="false" />

		<!-- if an approximation of the opportunity cost of time is included into the radius calculation for location choice.`true' will be faster, but it is an approximation.  Default is `true'; `false' is available for backwards compatibility. -->
		<param name="isUsingOpportunityCostOfTimeForLocationChoice" value="true" />

		<param name="logitScaleParamForPlansRemoval" value="1.0" />

		<!-- Options: [Lorg.matsim.core.config.groups.VspExperimentalConfigGroup$VspDefaultsCheckingLevel;@3590fc5b.  When violating VSP defaults, this results in nothing, logfile infos, logfile warnings, or aborts.  Members of VSP should use `abort' or talk to kai. -->
		<param name="vspDefaultsCheckingLevel" value="ignore" />

		<!-- if true then writes output_events in output directory.  default is `false'. Will only work when lastIteration is multiple of events writing interval -->
		<param name="writingOutputEvents" value="false" />
	</module>

<!-- ====================================================================== -->

</config>

2015-10-05 15:56:10,221  INFO ControlerUtils:62 Complete config dump done.
2015-10-05 15:56:10,221  INFO ControlerUtils:63 Checking consistency of config...
2015-10-05 15:56:10,221  INFO VspConfigConsistencyCheckerImpl:54 NOT running vsp config consistency check because vsp defaults checking level is set to IGNORE
2015-10-05 15:56:10,221  INFO ControlerUtils:65 Checking consistency of config done.
2015-10-05 15:56:10,241  INFO TransitRouterNetwork:366 start creating transit network
2015-10-05 15:56:10,243  INFO Counter:51  node #1
2015-10-05 15:56:10,243  INFO Counter:51  node #2
2015-10-05 15:56:10,244  INFO Counter:51  link #1
2015-10-05 15:56:10,244  INFO Counter:51  link #2
2015-10-05 15:56:10,244  INFO Counter:51  node #4
2015-10-05 15:56:10,244  INFO Counter:51  link #4
2015-10-05 15:56:10,244  INFO Counter:51  node #8
2015-10-05 15:56:10,245  INFO Counter:51  link #8
2015-10-05 15:56:10,245  INFO Counter:51  node #16
2015-10-05 15:56:10,245  INFO Counter:51  link #16
2015-10-05 15:56:10,245  INFO Counter:51  node #32
2015-10-05 15:56:10,245  INFO Counter:51  link #32
2015-10-05 15:56:10,245  INFO Counter:51  node #64
2015-10-05 15:56:10,245  INFO Counter:51  link #64
2015-10-05 15:56:10,250  INFO TransitRouterNetwork:392 add transfer links
2015-10-05 15:56:10,251  INFO TransitRouterNetwork:408 354 transfer links to be added.
2015-10-05 15:56:10,252  INFO Counter:51  link #128
2015-10-05 15:56:10,252  INFO Counter:51  link #256
2015-10-05 15:56:10,253  INFO TransitRouterNetwork:414 transit router network statistics:
2015-10-05 15:56:10,253  INFO TransitRouterNetwork:415  # nodes: 121
2015-10-05 15:56:10,253  INFO TransitRouterNetwork:416  # links total:     469
2015-10-05 15:56:10,253  INFO TransitRouterNetwork:417  # transfer links:  354
2015-10-05 15:56:10,282  INFO NetworkImpl:368 building QuadTree for nodes: xrange(1054300.199471335,1068258.738856779); yrange(855642.8375964143,878677.9055935786)
2015-10-05 15:56:10,286  INFO NetworkImpl:377 Building QuadTree took 0.005 seconds.
2015-10-05 15:56:10,303  INFO Counter:51 [PersonPrepareForSim] handled person # 1
2015-10-05 15:56:10,304  INFO Counter:51 [PersonPrepareForSim] handled person # 2
2015-10-05 15:56:10,304  INFO Counter:51 [PersonPrepareForSim] handled person # 4
2015-10-05 15:56:10,308  INFO Counter:51 [PersonPrepareForSim] handled person # 8
2015-10-05 15:56:10,310  INFO Counter:51 [PersonPrepareForSim] handled person # 16
2015-10-05 15:56:10,315  INFO Counter:51 [PersonPrepareForSim] handled person # 32
2015-10-05 15:56:10,322  INFO Counter:51 [PersonPrepareForSim] handled person # 64
2015-10-05 15:56:10,335  INFO Counter:51 [PersonPrepareForSim] handled person # 128
2015-10-05 15:56:10,359  INFO Counter:51 [PersonPrepareForSim] handled person # 256
2015-10-05 15:56:10,394  INFO Counter:51 [PersonPrepareForSim] handled person # 512
2015-10-05 15:56:10,445  INFO Counter:51 [PersonPrepareForSim] handled person # 1024
2015-10-05 15:56:10,545  INFO Counter:51 [PersonPrepareForSim] handled person # 2048
2015-10-05 15:56:10,767  INFO Counter:51 [PersonPrepareForSim] handled person # 4096
2015-10-05 15:56:11,005  INFO Counter:51 [PersonPrepareForSim] handled person # 8192
2015-10-05 15:56:11,692  INFO Counter:51 [PersonPrepareForSim] handled person # 16384
2015-10-05 15:56:12,028  INFO Counter:51 [PersonPrepareForSim] handled person # 32768
2015-10-05 15:56:12,528  INFO Counter:57 [PersonPrepareForSim] handled person # 59487
2015-10-05 15:56:12,529  INFO AbstractController:240 ###################################################
2015-10-05 15:56:12,529  INFO AbstractController:241 ### ITERATION 0 BEGINS
2015-10-05 15:56:12,530  INFO ControlerListenerManager:141 calling notifyIterationStarts on org.matsim.core.controler.corelisteners.PlansScoringImpl
2015-10-05 15:56:12,670  INFO EventsManagerImpl:144 adding Event-Handler: org.matsim.core.scoring.EventsToScore
2015-10-05 15:56:12,670  INFO EventsManagerImpl:148   org.matsim.core.events.handler.BasicEventHandler
2015-10-05 15:56:12,670  INFO EventsManagerImpl:207     > org.matsim.api.core.v01.events.Event
2015-10-05 15:56:12,670  INFO EventsManagerImpl:156 
2015-10-05 15:56:12,670  INFO EventsManagerImpl:144 adding Event-Handler: org.matsim.core.scoring.EventsToScore
2015-10-05 15:56:12,670  INFO EventsManagerImpl:148   org.matsim.core.events.handler.BasicEventHandler
2015-10-05 15:56:12,670  INFO EventsManagerImpl:207     > org.matsim.api.core.v01.events.Event
2015-10-05 15:56:12,670  INFO EventsManagerImpl:156 
2015-10-05 15:56:12,670  INFO ControlerListenerManager:146 calling notifyIterationStarts on org.matsim.analysis.LegHistogramListener
2015-10-05 15:56:12,670  INFO ControlerListenerManager:146 calling notifyIterationStarts on org.matsim.analysis.LinkStatsControlerListener
2015-10-05 15:56:12,670  INFO ControlerListenerManager:149 [it.0] all ControlerIterationStartsListeners called.
2015-10-05 15:56:12,671  INFO ControlerListenerManager:225 calling notifyBeforeMobsim on org.matsim.core.controler.corelisteners.EventsHandlingImpl
2015-10-05 15:56:12,671  INFO EventsManagerImpl:170 resetting Event-Handlers
2015-10-05 15:56:12,671  INFO EventsManagerImpl:177   org.matsim.core.trafficmonitoring.TravelTimeCalculator
2015-10-05 15:56:12,671  INFO EventsManagerImpl:177   org.matsim.analysis.VolumesAnalyzer
2015-10-05 15:56:12,671  INFO EventsManagerImpl:177   org.matsim.analysis.CalcLegTimes
2015-10-05 15:56:12,671  INFO EventsManagerImpl:177   org.matsim.analysis.LegHistogram
2015-10-05 15:56:12,671  INFO EventsManagerImpl:177   org.matsim.core.scoring.EventsToScore
2015-10-05 15:56:12,761  INFO EventsManagerImpl:144 adding Event-Handler: org.matsim.core.events.algorithms.EventWriterXML
2015-10-05 15:56:12,761  INFO EventsManagerImpl:148   org.matsim.core.events.algorithms.EventWriter
2015-10-05 15:56:12,761  INFO EventsManagerImpl:148   org.matsim.core.events.handler.BasicEventHandler
2015-10-05 15:56:12,761  INFO EventsManagerImpl:207     > org.matsim.api.core.v01.events.Event
2015-10-05 15:56:12,761  INFO EventsManagerImpl:156 
2015-10-05 15:56:12,761  INFO EventsManagerImpl:144 adding Event-Handler: org.matsim.core.events.algorithms.EventWriterXML
2015-10-05 15:56:12,761  INFO EventsManagerImpl:148   org.matsim.core.events.algorithms.EventWriter
2015-10-05 15:56:12,761  INFO EventsManagerImpl:148   org.matsim.core.events.handler.BasicEventHandler
2015-10-05 15:56:12,761  INFO EventsManagerImpl:207     > org.matsim.api.core.v01.events.Event
2015-10-05 15:56:12,761  INFO EventsManagerImpl:156 
2015-10-05 15:56:12,762  INFO ControlerListenerManager:225 calling notifyBeforeMobsim on org.matsim.core.controler.corelisteners.PlansDumpingImpl
2015-10-05 15:56:12,762  INFO PlansDumpingImpl:79 dumping plans...
2015-10-05 15:56:12,785  INFO Counter:51 [PopulationWriter] dumped person # 1
2015-10-05 15:56:12,786  INFO Counter:51 [PopulationWriter] dumped person # 2
2015-10-05 15:56:12,787  INFO Counter:51 [PopulationWriter] dumped person # 4
2015-10-05 15:56:12,787  INFO Counter:51 [PopulationWriter] dumped person # 8
2015-10-05 15:56:12,789  INFO Counter:51 [PopulationWriter] dumped person # 16
2015-10-05 15:56:12,791  INFO Counter:51 [PopulationWriter] dumped person # 32
2015-10-05 15:56:12,794  INFO Counter:51 [PopulationWriter] dumped person # 64
2015-10-05 15:56:12,800  INFO Counter:51 [PopulationWriter] dumped person # 128
2015-10-05 15:56:12,810  INFO Counter:51 [PopulationWriter] dumped person # 256
2015-10-05 15:56:12,830  INFO Counter:51 [PopulationWriter] dumped person # 512
2015-10-05 15:56:12,863  INFO Counter:51 [PopulationWriter] dumped person # 1024
2015-10-05 15:56:12,933  INFO Counter:51 [PopulationWriter] dumped person # 2048
2015-10-05 15:56:13,080  INFO Counter:51 [PopulationWriter] dumped person # 4096
2015-10-05 15:56:13,355  INFO Counter:51 [PopulationWriter] dumped person # 8192
2015-10-05 15:56:13,831  INFO Counter:51 [PopulationWriter] dumped person # 16384
2015-10-05 15:56:14,717  INFO Counter:51 [PopulationWriter] dumped person # 32768
[...]
2015-10-05 15:56:35,365  INFO Counter:51 [PopulationWriter] dumped person # 256
2015-10-05 15:56:35,387  INFO Counter:51 [PopulationWriter] dumped person # 512
2015-10-05 15:56:35,422  INFO Counter:51 [PopulationWriter] dumped person # 1024
2015-10-05 15:56:35,494  INFO Counter:51 [PopulationWriter] dumped person # 2048
2015-10-05 15:56:35,634  INFO Counter:51 [PopulationWriter] dumped person # 4096
2015-10-05 15:56:35,915  INFO Counter:51 [PopulationWriter] dumped person # 8192
2015-10-05 15:56:36,555  INFO Counter:51 [PopulationWriter] dumped person # 16384
2015-10-05 15:56:37,674  INFO Counter:51 [PopulationWriter] dumped person # 32768
2015-10-05 15:56:39,268  INFO PopulationWriter:95 Population written to: ./output/ITERS/it.1/1.plans.xml.gz
2015-10-05 15:56:39,275  INFO Counter:57 [PopulationWriter] dumped person # 59487
2015-10-05 15:56:39,275  INFO PlansDumpingImpl:81 finished plans dump.
2015-10-05 15:56:39,275  INFO ControlerListenerManager:230 calling notifyBeforeMobsim on org.matsim.population.VspPlansCleaner
2015-10-05 15:56:39,346  INFO ControlerListenerManager:233 [it.1] all ControlerBeforeMobsimListeners called.
2015-10-05 15:56:39,360  INFO MobsimListenerManager:49 calling addQueueSimulationListener
2015-10-05 15:56:39,360  INFO MobsimListenerManager:53   assigned class org.matsim.core.mobsim.framework.listeners.MobsimListener to interface org.matsim.core.mobsim.qsim.messagequeueengine.MessageQueueEngine
2015-10-05 15:56:39,360  INFO MobsimListenerManager:53   assigned class org.matsim.core.mobsim.framework.listeners.MobsimListener to interface org.matsim.core.mobsim.framework.listeners.MobsimBeforeSimStepListener
2015-10-05 15:56:39,360  INFO MobsimListenerManager:53   assigned class org.matsim.core.mobsim.framework.listeners.MobsimListener to interface org.matsim.core.mobsim.framework.listeners.MobsimListener
2015-10-05 15:56:39,360  INFO MobsimListenerManager:49 calling addQueueSimulationListener
2015-10-05 15:56:39,360  INFO MobsimListenerManager:53   assigned class org.matsim.core.mobsim.framework.listeners.MobsimListener to interface org.matsim.core.mobsim.framework.listeners.MobsimBeforeCleanupListener
2015-10-05 15:56:39,361  INFO MobsimListenerManager:53   assigned class org.matsim.core.mobsim.framework.listeners.MobsimListener to interface org.matsim.core.mobsim.framework.listeners.MobsimInitializedListener
2015-10-05 15:56:39,361  INFO MobsimListenerManager:53   assigned class org.matsim.core.mobsim.framework.listeners.MobsimListener to interface org.matsim.core.mobsim.framework.listeners.MobsimAfterSimStepListener
2015-10-05 15:56:39,361  INFO MobsimListenerManager:53   assigned class org.matsim.core.mobsim.framework.listeners.MobsimListener to interface org.matsim.core.mobsim.framework.listeners.MobsimListener
2015-10-05 15:56:39,361  INFO MobsimListenerManager:53   assigned class org.matsim.core.mobsim.framework.listeners.MobsimListener to interface org.matsim.vis.snapshotwriters.SnapshotWriterManager
2015-10-05 15:56:39,361  INFO ReconstructingUmlaufBuilder:112 Generating UmlaufStuecke
2015-10-05 15:56:39,590  INFO QNetsimEngine:539 Assigned 2020 nodes and 2667 links to QSimEngineRunner #0
2015-10-05 15:56:39,619  INFO QNetsimEngine:367 SIMULATION (QNetsimEngine) AT 00:48:36 : #links=0 #nodes=0
2015-10-05 15:56:39,619  INFO QSim:445 SIMULATION (NEW QSim) AT 00:48:36 : #Veh=59564 lost=0 simT=0.0s realT=0s; (s/r): 0.0
2015-10-05 15:56:39,619  INFO Gbl:52 used RAM: 762505768B = 744634kB = 727MB  free: 281875928B = 268MB  total: 1044381696B = 996MB
2015-10-05 15:56:39,642  INFO QNetsimEngine:367 SIMULATION (QNetsimEngine) AT 01:00:00 : #links=0 #nodes=0
2015-10-05 15:56:39,642  INFO QSim:445 SIMULATION (NEW QSim) AT 01:00:00 : #Veh=59564 lost=0 simT=684.0s realT=0s; (s/r): Infinity
2015-10-05 15:56:39,643  INFO Gbl:52 used RAM: 762505768B = 744634kB = 727MB  free: 281875928B = 268MB  total: 1044381696B = 996MB
2015-10-05 15:56:39,771  INFO QNetsimEngine:367 SIMULATION (QNetsimEngine) AT 02:00:00 : #links=0 #nodes=0
2015-10-05 15:56:39,772  INFO QSim:445 SIMULATION (NEW QSim) AT 02:00:00 : #Veh=59564 lost=0 simT=4284.0s realT=0s; (s/r): Infinity
2015-10-05 15:56:39,772  INFO Gbl:52 used RAM: 762505768B = 744634kB = 727MB  free: 281875928B = 268MB  total: 1044381696B = 996MB
2015-10-05 15:56:39,865  INFO QNetsimEngine:367 SIMULATION (QNetsimEngine) AT 03:00:00 : #links=0 #nodes=0
2015-10-05 15:56:39,866  INFO QSim:445 SIMULATION (NEW QSim) AT 03:00:00 : #Veh=59564 lost=0 simT=7884.0s realT=0s; (s/r): Infinity
2015-10-05 15:56:39,866  INFO Gbl:52 used RAM: 766275896B = 748316kB = 730MB  free: 278105800B = 265MB  total: 1044381696B = 996MB
2015-10-05 15:56:39,962  INFO QNetsimEngine:367 SIMULATION (QNetsimEngine) AT 04:00:00 : #links=0 #nodes=0
2015-10-05 15:56:39,962  INFO QSim:445 SIMULATION (NEW QSim) AT 04:00:00 : #Veh=59564 lost=0 simT=11484.0s realT=0s; (s/r): Infinity
2015-10-05 15:56:39,962  INFO Gbl:52 used RAM: 766275896B = 748316kB = 730MB  free: 278105800B = 265MB  total: 1044381696B = 996MB
2015-10-05 15:56:40,068  INFO QNetsimEngine:367 SIMULATION (QNetsimEngine) AT 05:00:00 : #links=3 #nodes=0
2015-10-05 15:56:40,068  INFO QSim:445 SIMULATION (NEW QSim) AT 05:00:00 : #Veh=59560 lost=0 simT=15084.0s realT=0s; (s/r): Infinity
2015-10-05 15:56:40,068  INFO Gbl:52 used RAM: 767458200B = 749470kB = 731MB  free: 276923496B = 264MB  total: 1044381696B = 996MB
2015-10-05 15:56:40,537  INFO QNetsimEngine:367 SIMULATION (QNetsimEngine) AT 06:00:00 : #links=18 #nodes=2
2015-10-05 15:56:40,537  INFO QSim:445 SIMULATION (NEW QSim) AT 06:00:00 : #Veh=59543 lost=0 simT=18684.0s realT=1s; (s/r): 18684.0
2015-10-05 15:56:40,537  INFO Gbl:52 used RAM: 807866480B = 788932kB = 770MB  free: 236515216B = 225MB  total: 1044381696B = 996MB
2015-10-05 15:56:41,535  INFO QNetsimEngine:367 SIMULATION (QNetsimEngine) AT 07:00:00 : #links=34 #nodes=7
2015-10-05 15:56:41,535  INFO QSim:445 SIMULATION (NEW QSim) AT 07:00:00 : #Veh=59455 lost=0 simT=22284.0s realT=2s; (s/r): 11142.0
2015-10-05 15:56:41,535  INFO Gbl:52 used RAM: 488298968B = 476854kB = 465MB  free: 466953768B = 445MB  total: 955252736B = 911MB
2015-10-05 15:56:42,546  INFO QNetsimEngine:367 SIMULATION (QNetsimEngine) AT 08:00:00 : #links=36 #nodes=5
2015-10-05 15:56:42,546  INFO QSim:445 SIMULATION (NEW QSim) AT 08:00:00 : #Veh=59287 lost=0 simT=25884.0s realT=3s; (s/r): 8628.0
2015-10-05 15:56:42,546  INFO Gbl:52 used RAM: 612249784B = 597900kB = 583MB  free: 343002952B = 327MB  total: 955252736B = 911MB
2015-10-05 15:56:43,326  INFO QNetsimEngine:367 SIMULATION (QNetsimEngine) AT 09:00:00 : #links=28 #nodes=3
2015-10-05 15:56:43,326  INFO QSim:445 SIMULATION (NEW QSim) AT 09:00:00 : #Veh=58854 lost=0 simT=29484.0s realT=3s; (s/r): 9828.0
2015-10-05 15:56:43,326  INFO Gbl:52 used RAM: 706157632B = 689607kB = 673MB  free: 249095104B = 237MB  total: 955252736B = 911MB
2015-10-05 15:56:44,029  INFO QNetsimEngine:367 SIMULATION (QNetsimEngine) AT 10:00:00 : #links=24 #nodes=1
2015-10-05 15:56:44,030  INFO QSim:445 SIMULATION (NEW QSim) AT 10:00:00 : #Veh=57928 lost=0 simT=33084.0s realT=4s; (s/r): 8271.0
2015-10-05 15:56:44,030  INFO Gbl:52 used RAM: 791519384B = 772968kB = 754MB  free: 163733352B = 156MB  total: 955252736B = 911MB
2015-10-05 15:56:45,334  INFO QNetsimEngine:367 SIMULATION (QNetsimEngine) AT 11:00:00 : #links=20 #nodes=0
2015-10-05 15:56:45,334  INFO QSim:445 SIMULATION (NEW QSim) AT 11:00:00 : #Veh=56304 lost=0 simT=36684.0s realT=5s; (s/r): 7336.8
2015-10-05 15:56:45,334  INFO Gbl:52 used RAM: 325443512B = 317815kB = 310MB  free: 718413896B = 685MB  total: 1043857408B = 995MB
2015-10-05 15:56:46,062  INFO QNetsimEngine:367 SIMULATION (QNetsimEngine) AT 12:00:00 : #links=21 #nodes=1
2015-10-05 15:56:46,062  INFO QSim:445 SIMULATION (NEW QSim) AT 12:00:00 : #Veh=53996 lost=0 simT=40284.0s realT=6s; (s/r): 6714.0
2015-10-05 15:56:46,063  INFO Gbl:52 used RAM: 411343056B = 401702kB = 392MB  free: 632514352B = 603MB  total: 1043857408B = 995MB
2015-10-05 15:56:46,869  INFO QNetsimEngine:367 SIMULATION (QNetsimEngine) AT 13:00:00 : #links=26 #nodes=3
2015-10-05 15:56:46,869  INFO QSim:445 SIMULATION (NEW QSim) AT 13:00:00 : #Veh=50868 lost=0 simT=43884.0s realT=7s; (s/r): 6269.142857142857
2015-10-05 15:56:46,869  INFO Gbl:52 used RAM: 508711592B = 496788kB = 485MB  free: 535145816B = 510MB  total: 1043857408B = 995MB
2015-10-05 15:56:47,592  INFO QNetsimEngine:367 SIMULATION (QNetsimEngine) AT 14:00:00 : #links=22 #nodes=2
2015-10-05 15:56:47,592  INFO QSim:445 SIMULATION (NEW QSim) AT 14:00:00 : #Veh=48368 lost=0 simT=47484.0s realT=8s; (s/r): 5935.5
2015-10-05 15:56:47,592  INFO Gbl:52 used RAM: 591772688B = 577903kB = 564MB  free: 452084720B = 431MB  total: 1043857408B = 995MB
2015-10-05 15:56:48,375  INFO QNetsimEngine:367 SIMULATION (QNetsimEngine) AT 15:00:00 : #links=24 #nodes=2
2015-10-05 15:56:48,376  INFO QSim:445 SIMULATION (NEW QSim) AT 15:00:00 : #Veh=45636 lost=0 simT=51084.0s realT=9s; (s/r): 5676.0
2015-10-05 15:56:48,376  INFO Gbl:52 used RAM: 336464624B = 328578kB = 320MB  free: 691664144B = 659MB  total: 1028128768B = 980MB
2015-10-05 15:56:49,094  INFO QNetsimEngine:367 SIMULATION (QNetsimEngine) AT 16:00:00 : #links=23 #nodes=3
2015-10-05 15:56:49,094  INFO QSim:445 SIMULATION (NEW QSim) AT 16:00:00 : #Veh=42299 lost=0 simT=54684.0s realT=9s; (s/r): 6076.0
2015-10-05 15:56:49,094  INFO Gbl:52 used RAM: 419421608B = 409591kB = 399MB  free: 608707160B = 580MB  total: 1028128768B = 980MB
2015-10-05 15:56:49,900  INFO QNetsimEngine:367 SIMULATION (QNetsimEngine) AT 17:00:00 : #links=29 #nodes=3
2015-10-05 15:56:49,900  INFO QSim:445 SIMULATION (NEW QSim) AT 17:00:00 : #Veh=37291 lost=0 simT=58284.0s realT=10s; (s/r): 5828.4
2015-10-05 15:56:49,900  INFO Gbl:52 used RAM: 513006880B = 500983kB = 489MB  free: 515121888B = 491MB  total: 1028128768B = 980MB
2015-10-05 15:56:51,064  INFO QNetsimEngine:367 SIMULATION (QNetsimEngine) AT 18:00:00 : #links=29 #nodes=2
2015-10-05 15:56:51,065  INFO QSim:445 SIMULATION (NEW QSim) AT 18:00:00 : #Veh=29038 lost=0 simT=61884.0s realT=11s; (s/r): 5625.818181818182
2015-10-05 15:56:51,065  INFO Gbl:52 used RAM: 652388256B = 637097kB = 622MB  free: 375740512B = 358MB  total: 1028128768B = 980MB
2015-10-05 15:56:52,261  INFO QNetsimEngine:367 SIMULATION (QNetsimEngine) AT 19:00:00 : #links=36 #nodes=4
2015-10-05 15:56:52,261  INFO QSim:445 SIMULATION (NEW QSim) AT 19:00:00 : #Veh=19547 lost=0 simT=65484.0s realT=12s; (s/r): 5457.0
2015-10-05 15:56:52,261  INFO Gbl:52 used RAM: 435050896B = 424854kB = 414MB  free: 604612208B = 576MB  total: 1039663104B = 991MB
2015-10-05 15:56:52,820  INFO EventsManagerImpl:134  event # 4194304
2015-10-05 15:56:52,918  INFO QNetsimEngine:367 SIMULATION (QNetsimEngine) AT 20:00:00 : #links=27 #nodes=3
2015-10-05 15:56:52,918  INFO QSim:445 SIMULATION (NEW QSim) AT 20:00:00 : #Veh=13111 lost=0 simT=69084.0s realT=13s; (s/r): 5314.153846153846
2015-10-05 15:56:52,918  INFO Gbl:52 used RAM: 511949064B = 499950kB = 488MB  free: 527714040B = 503MB  total: 1039663104B = 991MB
2015-10-05 15:56:53,410  INFO QNetsimEngine:367 SIMULATION (QNetsimEngine) AT 21:00:00 : #links=25 #nodes=1
2015-10-05 15:56:53,410  INFO QSim:445 SIMULATION (NEW QSim) AT 21:00:00 : #Veh=8369 lost=0 simT=72684.0s realT=14s; (s/r): 5191.714285714285
2015-10-05 15:56:53,410  INFO Gbl:52 used RAM: 563786912B = 550573kB = 537MB  free: 475876192B = 453MB  total: 1039663104B = 991MB
2015-10-05 15:56:53,940  INFO QNetsimEngine:367 SIMULATION (QNetsimEngine) AT 22:00:00 : #links=17 #nodes=3
2015-10-05 15:56:53,940  INFO QSim:445 SIMULATION (NEW QSim) AT 22:00:00 : #Veh=3050 lost=0 simT=76284.0s realT=14s; (s/r): 5448.857142857143
2015-10-05 15:56:53,940  INFO Gbl:52 used RAM: 622746448B = 608150kB = 593MB  free: 416916656B = 397MB  total: 1039663104B = 991MB
2015-10-05 15:56:54,220  INFO QNetsimEngine:367 SIMULATION (QNetsimEngine) AT 23:00:00 : #links=10 #nodes=2
2015-10-05 15:56:54,221  INFO QSim:445 SIMULATION (NEW QSim) AT 23:00:00 : #Veh=140 lost=0 simT=79884.0s realT=14s; (s/r): 5706.0
2015-10-05 15:56:54,221  INFO Gbl:52 used RAM: 653939056B = 638612kB = 623MB  free: 385724048B = 367MB  total: 1039663104B = 991MB
2015-10-05 15:56:54,354  INFO QNetsimEngine:367 SIMULATION (QNetsimEngine) AT 24:00:00 : #links=0 #nodes=0
2015-10-05 15:56:54,354  INFO QSim:445 SIMULATION (NEW QSim) AT 24:00:00 : #Veh=23 lost=0 simT=83484.0s realT=15s; (s/r): 5565.6
2015-10-05 15:56:54,354  INFO Gbl:52 used RAM: 654928248B = 639578kB = 624MB  free: 384734856B = 366MB  total: 1039663104B = 991MB
2015-10-05 15:56:54,358  INFO AbstractController$6:329 ### ITERATION 1 fires after mobsim event
2015-10-05 15:56:54,358  INFO ControlerListenerManager:244 calling notifyAfterMobsim on org.matsim.core.controler.corelisteners.EventsHandlingImpl
2015-10-05 15:56:54,358  INFO ControlerListenerManager:249 calling notifyAfterMobsim on org.matsim.analysis.LegTimesControlerListener
2015-10-05 15:56:54,358  INFO Gbl:185 Thread performance: Thread=class org.matsim.core.events.SimStepParallelEventsManagerImpl$ProcessEventsRunnable0  cpu-time=11.609375sec
2015-10-05 15:56:54,359  INFO LegTimesControlerListener:50 [1] average trip (probably: leg) duration is: 245 seconds = 00:04:05
2015-10-05 15:56:54,359  INFO ControlerListenerManager:252 [it.1] all ControlerAfterMobsimListeners called.
2015-10-05 15:56:54,359  INFO AbstractController$4:266 ### ITERATION 1 fires scoring event
2015-10-05 15:56:54,359  INFO ControlerListenerManager:184 calling notifyScoring on org.matsim.core.controler.corelisteners.PlansScoringImpl
2015-10-05 15:56:54,537  INFO EventsToScore:178 it: 1 msaStart: null
2015-10-05 15:56:54,577  INFO ControlerListenerManager:195 [it.1] all ControlerScoringListeners called.
2015-10-05 15:56:54,577  INFO AbstractController$5:274 ### ITERATION 1 fires iteration end event
2015-10-05 15:56:54,578  INFO ControlerListenerManager:161 calling notifyIterationEnds on org.matsim.core.controler.corelisteners.EventsHandlingImpl
2015-10-05 15:56:54,579  INFO EventsManagerImpl:161 removing Event-Handler: org.matsim.core.events.algorithms.EventWriterXML
2015-10-05 15:56:54,579  INFO EventsManagerImpl:161 removing Event-Handler: org.matsim.core.events.algorithms.EventWriterXML
2015-10-05 15:56:54,579  INFO ControlerListenerManager:161 calling notifyIterationEnds on org.matsim.core.controler.corelisteners.PlansScoringImpl
2015-10-05 15:56:54,579  INFO EventsManagerImpl:161 removing Event-Handler: org.matsim.core.scoring.EventsToScore
2015-10-05 15:56:54,579  INFO EventsManagerImpl:161 removing Event-Handler: org.matsim.core.scoring.EventsToScore
2015-10-05 15:56:54,584  INFO TravelDistanceStats:122 [TravelDistanceStats] using 8 thread(s).
2015-10-05 15:56:54,665  INFO TravelDistanceStats:135 [TravelDistanceStats] all threads finished.
2015-10-05 15:56:54,665  INFO TravelDistanceStats:155 -- average of the average leg distance per plan (executed plans only): 1777.8214139925694
2015-10-05 15:56:54,665  INFO TravelDistanceStats:156 (TravelDistanceStats takes an average over all legs where the simulation reports travelled distances. These are car legs, pt legs,
2015-10-05 15:56:54,665  INFO TravelDistanceStats:157 (and teleported legs whose route contains a distance.)
2015-10-05 15:56:54,753  INFO ControlerListenerManager:168 calling notifyIterationEnds on org.matsim.counts.CountsControlerListener
2015-10-05 15:56:54,753  INFO ControlerListenerManager:168 calling notifyIterationEnds on org.matsim.analysis.ScoreStatsControlerListener
2015-10-05 15:56:54,774  INFO ScoreStatsControlerListener:187 -- avg. score of the executed plan of each agent: 4.381593082064457
2015-10-05 15:56:54,774  INFO ScoreStatsControlerListener:188 -- avg. score of the worst plan of each agent: 3.73407764051044
2015-10-05 15:56:54,774  INFO ScoreStatsControlerListener:189 -- avg. of the avg. plan score per agent: 4.4469197336156965
2015-10-05 15:56:54,774  INFO ScoreStatsControlerListener:190 -- avg. score of the best plan of each agent: 5.15976182672134
2015-10-05 15:56:54,852  INFO ControlerListenerManager:168 calling notifyIterationEnds on org.matsim.analysis.LegHistogramListener
2015-10-05 15:56:54,858  INFO LegHistogramListener:78 number of legs:	359607	100%
2015-10-05 15:56:54,858  INFO LegHistogramListener:85 number of pt legs:	106190	29.529458547803575%
2015-10-05 15:56:54,858  INFO LegHistogramListener:85 number of transit_walk legs:	253417	70.47054145219643%
2015-10-05 15:56:55,451  INFO ControlerListenerManager:168 calling notifyIterationEnds on org.matsim.analysis.LinkStatsControlerListener
2015-10-05 15:56:55,451  INFO ControlerListenerManager:172 [it.1] all ControlerIterationEndsListeners called.
2015-10-05 15:56:55,555  INFO AbstractController:284 ### ITERATION 1 ENDS
2015-10-05 15:56:55,555  INFO AbstractController:285 ###################################################
2015-10-05 15:56:55,556  INFO AbstractController:203 S H U T D O W N   ---   start shutdown.
2015-10-05 15:56:55,556  INFO ControlerListenerManager:122 calling notifyShutdown on org.matsim.core.controler.corelisteners.EventsHandlingImpl
2015-10-05 15:56:55,556  INFO ControlerListenerManager:122 calling notifyShutdown on org.matsim.core.controler.corelisteners.PlansScoringImpl
2015-10-05 15:56:55,556  INFO ControlerListenerManager:122 calling notifyShutdown on org.matsim.core.controler.corelisteners.DumpDataAtEndImpl
2015-10-05 15:56:55,575  INFO Counter:51 [PopulationWriter] dumped person # 1
2015-10-05 15:56:55,575  INFO Counter:51 [PopulationWriter] dumped person # 2
2015-10-05 15:56:55,575  INFO Counter:51 [PopulationWriter] dumped person # 4
2015-10-05 15:56:55,575  INFO Counter:51 [PopulationWriter] dumped person # 8
2015-10-05 15:56:55,576  INFO Counter:51 [PopulationWriter] dumped person # 16
2015-10-05 15:56:55,577  INFO Counter:51 [PopulationWriter] dumped person # 32
2015-10-05 15:56:55,579  INFO Counter:51 [PopulationWriter] dumped person # 64
2015-10-05 15:56:55,584  INFO Counter:51 [PopulationWriter] dumped person # 128
2015-10-05 15:56:55,593  INFO Counter:51 [PopulationWriter] dumped person # 256
2015-10-05 15:56:55,610  INFO Counter:51 [PopulationWriter] dumped person # 512
2015-10-05 15:56:55,644  INFO Counter:51 [PopulationWriter] dumped person # 1024
2015-10-05 15:56:55,714  INFO Counter:51 [PopulationWriter] dumped person # 2048
2015-10-05 15:56:55,857  INFO Counter:51 [PopulationWriter] dumped person # 4096
2015-10-05 15:56:56,139  INFO Counter:51 [PopulationWriter] dumped person # 8192
2015-10-05 15:56:56,688  INFO Counter:51 [PopulationWriter] dumped person # 16384
2015-10-05 15:56:57,798  INFO Counter:51 [PopulationWriter] dumped person # 32768
2015-10-05 15:56:59,380  INFO PopulationWriter:95 Population written to: ./output/output_plans.xml.gz
2015-10-05 15:56:59,381  INFO Counter:57 [PopulationWriter] dumped person # 59487
2015-10-05 15:56:59,386  INFO NetworkWriter:46 Writing network to file: ./output/output_network.xml.gz...
2015-10-05 15:56:59,420  INFO NetworkWriter:49 done.
2015-10-05 15:56:59,437  INFO VehicleWriterV1:55 Vehicles written to: ./output/output_transitVehicles.xml.gz
2015-10-05 15:56:59,437  INFO VehicleWriterV1:55 Vehicles written to: ./output/output_vehicles.xml.gz
2015-10-05 15:56:59,440  INFO Counter:57 [HouseholdsWriter] dumped household # 0
2015-10-05 15:56:59,442  INFO LaneDefinitionsWriter20:62 Using LaneDefinitionWriter20...
2015-10-05 15:56:59,442  INFO LaneDefinitionsWriter20:71 writing to file: ./output/output_lanes.xml.gz
2015-10-05 15:56:59,521  INFO ControlerListenerManager:127 calling notifyShutdown on org.matsim.analysis.ScoreStatsControlerListener
2015-10-05 15:56:59,521  INFO ControlerListenerManager:130 all ControlerShutdownListeners called.
2015-10-05 15:56:59,521  INFO AbstractController:226 S H U T D O W N   ---   shutdown completed.
2015-10-05 15:56:59,521  INFO OutputDirectoryLogging:168 closing the logfile, i.e. messages sent to the logger after this message are not written to the logfile.
