2016-01-28 19:45:54,088  INFO Gbl:57 JVM: 1.8.0_20; Oracle Corporation; mixed mode; 64-bit
2016-01-28 19:45:54,089  INFO Gbl:61 OS: Windows 8.1; 6.3; amd64
2016-01-28 19:45:54,089  INFO Gbl:64 CPU cores: 8
2016-01-28 19:45:54,092  INFO Gbl:65 max. Memory: 1803.0MB (1890582528B)
2016-01-28 19:45:54,094  INFO Gbl:103 MATSim-Build: r${buildNumber} (${timestamp})
2016-01-28 19:45:54,095  INFO AbstractController:61 Used Controler-Class: org.matsim.core.controler.Controler
2016-01-28 19:45:54,376  INFO ScenarioLoaderImpl:100 loading scenario from base directory: C:\MATSim\workspace-mars\dta-brt\
2016-01-28 19:45:54,376  INFO ScenarioLoaderImpl:123 loading network from ./input/specialNetwork.xml
2016-01-28 19:45:54,380  INFO MatsimXmlParser:145 starting to parse xml from file ./input/specialNetwork.xml ...
2016-01-28 19:45:54,385  INFO MatsimNetworkReader:83 using network_v1-reader.
2016-01-28 19:45:54,385  INFO MatsimXmlParser:253 Trying to load http://www.matsim.org/files/dtd/network_v1.dtd. In some cases (e.g. network interface up but no connection), this may take a bit.
2016-01-28 19:45:55,349  INFO NetworkImpl:134  node # 1
2016-01-28 19:45:55,351  INFO NetworkImpl:134  node # 2
2016-01-28 19:45:55,353  INFO NetworkImpl:134  node # 4
2016-01-28 19:45:55,355  INFO NetworkImpl:134  node # 8
2016-01-28 19:45:55,357  INFO NetworkImpl:134  node # 16
2016-01-28 19:45:55,361  INFO NetworkImpl:134  node # 32
2016-01-28 19:45:55,367  INFO NetworkImpl:134  node # 64
2016-01-28 19:45:55,378  INFO NetworkImpl:134  node # 128
2016-01-28 19:45:55,399  INFO NetworkImpl:134  node # 256
2016-01-28 19:45:55,425  INFO NetworkImpl:134  node # 512
2016-01-28 19:45:55,463  INFO NetworkImpl:134  node # 1024
2016-01-28 19:45:55,521  INFO NetworkImpl:130  link # 1
2016-01-28 19:45:55,522  INFO NetworkImpl:130  link # 2
2016-01-28 19:45:55,523  INFO NetworkImpl:130  link # 4
2016-01-28 19:45:55,524  INFO NetworkImpl:130  link # 8
2016-01-28 19:45:55,526  INFO NetworkImpl:130  link # 16
2016-01-28 19:45:55,530  INFO NetworkImpl:130  link # 32
2016-01-28 19:45:55,536  INFO NetworkImpl:130  link # 64
2016-01-28 19:45:55,546  INFO NetworkImpl:130  link # 128
2016-01-28 19:45:55,562  INFO NetworkImpl:130  link # 256
2016-01-28 19:45:55,568  WARN LinkImpl:111 [from=to=[id=56][coord=[x=1063203.287337012][y=877613.5198577307]][type=null][nof_inlinks=1][nof_outlinks=1] link is a loop]
2016-01-28 19:45:55,569  WARN LinkImpl:113  Future occurences of this logging statement are suppressed.
2016-01-28 19:45:55,580  WARN NodeImpl:98 [id=56][coord=[x=1063203.287337012][y=877613.5198577307]][type=null][nof_inlinks=1][nof_outlinks=2][inlink_id=56-56 is now in- and out-link]
2016-01-28 19:45:55,580  WARN NodeImpl:99  This message given only once.
2016-01-28 19:45:55,600  INFO NetworkImpl:130  link # 512
2016-01-28 19:45:55,623  INFO NetworkImpl:130  link # 1024
2016-01-28 19:45:55,660  INFO NetworkImpl:130  link # 2048
2016-01-28 19:45:55,684  INFO ScenarioLoaderImpl:147 no facilities file set in config, therefore not loading any facilities.  This is not a problem except if you are using facilities
2016-01-28 19:45:55,685  INFO ScenarioLoaderImpl:155 no facility-attributes file set in config, not loading any facility attributes
2016-01-28 19:45:55,685  INFO ScenarioLoaderImpl:162 loading population from ./input/plans_sitm_cali_01.04.2014_final.xml
2016-01-28 19:45:55,698  INFO MatsimXmlParser:145 starting to parse xml from file ./input/plans_sitm_cali_01.04.2014_final.xml ...
2016-01-28 19:45:55,704  INFO MatsimPopulationReader:86 using population_v5-reader.
2016-01-28 19:45:55,704  INFO MatsimXmlParser:253 Trying to load http://www.matsim.org/files/dtd/population_v5.dtd. In some cases (e.g. network interface up but no connection), this may take a bit.
2016-01-28 19:45:56,177  INFO PopulationImpl:176  person # 1
2016-01-28 19:45:56,178  INFO PopulationImpl:176  person # 2
2016-01-28 19:45:56,180  INFO PopulationImpl:176  person # 4
2016-01-28 19:45:56,182  INFO PopulationImpl:176  person # 8
2016-01-28 19:45:56,187  INFO PopulationImpl:176  person # 16
2016-01-28 19:45:56,194  INFO PopulationImpl:176  person # 32
2016-01-28 19:45:56,206  INFO PopulationImpl:176  person # 64
2016-01-28 19:45:56,219  INFO PopulationImpl:176  person # 128
2016-01-28 19:45:56,234  INFO PopulationImpl:176  person # 256
2016-01-28 19:45:56,258  INFO PopulationImpl:176  person # 512
2016-01-28 19:45:56,294  INFO PopulationImpl:176  person # 1024
2016-01-28 19:45:56,384  INFO PopulationImpl:176  person # 2048
2016-01-28 19:45:56,547  INFO PopulationImpl:176  person # 4096
2016-01-28 19:45:56,875  INFO PopulationImpl:176  person # 8192
2016-01-28 19:45:57,258  INFO PopulationImpl:176  person # 16384
2016-01-28 19:45:57,692  INFO PopulationImpl:176  person # 32768
2016-01-28 19:45:58,485  INFO PopulationImpl:176  person # 65536
2016-01-28 19:46:01,124  INFO PopulationImpl:176  person # 131072
2016-01-28 19:46:02,310  INFO PopulationImpl:176  person # 188594
2016-01-28 19:46:02,311  INFO ScenarioLoaderImpl:178 no person-attributes file set in config, not loading any person attributes
2016-01-28 19:46:02,311  INFO ScenarioLoaderImpl:190 no households file set in config, not loading households
2016-01-28 19:46:02,311  INFO ScenarioLoaderImpl:198 no household-attributes file set in config, not loading any household attributes
2016-01-28 19:46:02,541 DEBUG MatsimFileTypeGuesser:147 Detected public id: null
2016-01-28 19:46:02,541 DEBUG MatsimFileTypeGuesser:148 Detected system Id: http://www.matsim.org/files/dtd/transitSchedule_v1.dtd
2016-01-28 19:46:02,549  INFO MatsimXmlParser:145 starting to parse xml from file ./input/transitSchedule.xml ...
2016-01-28 19:46:02,553  INFO MatsimXmlParser:253 Trying to load http://www.matsim.org/files/dtd/transitSchedule_v1.dtd. In some cases (e.g. network interface up but no connection), this may take a bit.
2016-01-28 19:46:02,838  INFO ScenarioLoaderImpl:225 loading transit vehicles from ./input/transitVehicles.xml
2016-01-28 19:46:02,843  INFO MatsimXmlParser:145 starting to parse xml from file ./input/transitVehicles.xml ...
2016-01-28 19:46:02,848  INFO MatsimXmlParser:253 Trying to load http://www.matsim.org/files/dtd/vehicleDefinitions_v1.0.xsd. In some cases (e.g. network interface up but no connection), this may take a bit.
2016-01-28 19:46:03,087  INFO MatsimXmlParser:253 Trying to load http://www.matsim.org/files/dtd/matsimCommon.xsd. In some cases (e.g. network interface up but no connection), this may take a bit.
2016-01-28 19:46:03,327  INFO MatsimXmlParser:253 Trying to load http://www.matsim.org/files/dtd/vehicleDefinitionsEnumTypes.xsd. In some cases (e.g. network interface up but no connection), this may take a bit.
2016-01-28 19:46:03,961  INFO Counter:51  vehicles # 1
2016-01-28 19:46:03,962  INFO Counter:51  vehicles # 2
2016-01-28 19:46:03,963  INFO Counter:51  vehicles # 4
2016-01-28 19:46:03,964  INFO Counter:51  vehicles # 8
2016-01-28 19:46:03,966  INFO Counter:51  vehicles # 16
2016-01-28 19:46:03,967  INFO Counter:51  vehicles # 32
2016-01-28 19:46:03,970  INFO Counter:51  vehicles # 64
2016-01-28 19:46:03,981  INFO Controler:255 setting up transit simulation
2016-01-28 19:46:05,805  INFO EventsManagerImpl:144 adding Event-Handler: org.matsim.core.trafficmonitoring.TravelTimeCalculator
2016-01-28 19:46:05,805  INFO EventsManagerImpl:148   org.matsim.api.core.v01.events.handler.LinkEnterEventHandler
2016-01-28 19:46:05,807  INFO EventsManagerImpl:207     > org.matsim.api.core.v01.events.LinkEnterEvent
2016-01-28 19:46:05,809  INFO EventsManagerImpl:148   org.matsim.api.core.v01.events.handler.LinkLeaveEventHandler
2016-01-28 19:46:05,810  INFO EventsManagerImpl:207     > org.matsim.api.core.v01.events.LinkLeaveEvent
2016-01-28 19:46:05,810  INFO EventsManagerImpl:148   org.matsim.api.core.v01.events.handler.Wait2LinkEventHandler
2016-01-28 19:46:05,813  INFO EventsManagerImpl:207     > org.matsim.api.core.v01.events.Wait2LinkEvent
2016-01-28 19:46:05,814  INFO EventsManagerImpl:148   org.matsim.api.core.v01.events.handler.VehicleLeavesTrafficEventHandler
2016-01-28 19:46:05,815  INFO EventsManagerImpl:207     > org.matsim.api.core.v01.events.VehicleLeavesTrafficEvent
2016-01-28 19:46:05,816  INFO EventsManagerImpl:148   org.matsim.core.api.experimental.events.handler.VehicleArrivesAtFacilityEventHandler
2016-01-28 19:46:05,831  INFO EventsManagerImpl:207     > org.matsim.core.api.experimental.events.VehicleArrivesAtFacilityEvent
2016-01-28 19:46:05,831  INFO EventsManagerImpl:148   org.matsim.api.core.v01.events.handler.VehicleAbortsEventHandler
2016-01-28 19:46:05,846  INFO EventsManagerImpl:207     > org.matsim.api.core.v01.events.VehicleAbortsEvent
2016-01-28 19:46:05,847  INFO EventsManagerImpl:156 
2016-01-28 19:46:05,847  INFO EventsManagerImpl:144 adding Event-Handler: org.matsim.core.trafficmonitoring.TravelTimeCalculator
2016-01-28 19:46:05,847  INFO EventsManagerImpl:148   org.matsim.api.core.v01.events.handler.LinkEnterEventHandler
2016-01-28 19:46:05,848  INFO EventsManagerImpl:207     > org.matsim.api.core.v01.events.LinkEnterEvent
2016-01-28 19:46:05,849  INFO EventsManagerImpl:148   org.matsim.api.core.v01.events.handler.LinkLeaveEventHandler
2016-01-28 19:46:05,849  INFO EventsManagerImpl:207     > org.matsim.api.core.v01.events.LinkLeaveEvent
2016-01-28 19:46:05,850  INFO EventsManagerImpl:148   org.matsim.api.core.v01.events.handler.Wait2LinkEventHandler
2016-01-28 19:46:05,850  INFO EventsManagerImpl:207     > org.matsim.api.core.v01.events.Wait2LinkEvent
2016-01-28 19:46:05,851  INFO EventsManagerImpl:148   org.matsim.api.core.v01.events.handler.VehicleLeavesTrafficEventHandler
2016-01-28 19:46:05,852  INFO EventsManagerImpl:207     > org.matsim.api.core.v01.events.VehicleLeavesTrafficEvent
2016-01-28 19:46:05,852  INFO EventsManagerImpl:148   org.matsim.core.api.experimental.events.handler.VehicleArrivesAtFacilityEventHandler
2016-01-28 19:46:05,853  INFO EventsManagerImpl:207     > org.matsim.core.api.experimental.events.VehicleArrivesAtFacilityEvent
2016-01-28 19:46:05,854  INFO EventsManagerImpl:148   org.matsim.api.core.v01.events.handler.VehicleAbortsEventHandler
2016-01-28 19:46:05,854  INFO EventsManagerImpl:207     > org.matsim.api.core.v01.events.VehicleAbortsEvent
2016-01-28 19:46:05,854  INFO EventsManagerImpl:156 
2016-01-28 19:46:05,862  INFO CalcLinkStats:151  resetting `count' to zero.  This info is here since we want to check when this is happening during normal simulation runs.  kai, jan'11
2016-01-28 19:46:05,874  INFO EventsManagerImpl:144 adding Event-Handler: org.matsim.analysis.VolumesAnalyzer
2016-01-28 19:46:05,874  INFO EventsManagerImpl:148   org.matsim.api.core.v01.events.handler.LinkLeaveEventHandler
2016-01-28 19:46:05,875  INFO EventsManagerImpl:207     > org.matsim.api.core.v01.events.LinkLeaveEvent
2016-01-28 19:46:05,875  INFO EventsManagerImpl:148   org.matsim.api.core.v01.events.handler.PersonDepartureEventHandler
2016-01-28 19:46:05,876  INFO EventsManagerImpl:207     > org.matsim.api.core.v01.events.PersonDepartureEvent
2016-01-28 19:46:05,876  INFO EventsManagerImpl:156 
2016-01-28 19:46:05,876  INFO EventsManagerImpl:144 adding Event-Handler: org.matsim.analysis.VolumesAnalyzer
2016-01-28 19:46:05,877  INFO EventsManagerImpl:148   org.matsim.api.core.v01.events.handler.LinkLeaveEventHandler
2016-01-28 19:46:05,877  INFO EventsManagerImpl:207     > org.matsim.api.core.v01.events.LinkLeaveEvent
2016-01-28 19:46:05,877  INFO EventsManagerImpl:148   org.matsim.api.core.v01.events.handler.PersonDepartureEventHandler
2016-01-28 19:46:05,878  INFO EventsManagerImpl:207     > org.matsim.api.core.v01.events.PersonDepartureEvent
2016-01-28 19:46:05,878  INFO EventsManagerImpl:156 
2016-01-28 19:46:05,883  INFO Injector:81 org.matsim.api.core.v01.Scenario
2016-01-28 19:46:05,883  INFO Injector:82    -> of(org.matsim.core.scenario.MutableScenario@2d7275fc)
2016-01-28 19:46:05,884  INFO Injector:81 org.matsim.pt.transitSchedule.api.TransitSchedule
2016-01-28 19:46:05,884  INFO Injector:82    -> Key[type=org.matsim.core.scenario.ScenarioByInstanceModule$TransitScheduleProvider, annotation=[none]]
2016-01-28 19:46:05,885  INFO Injector:81 org.matsim.vehicles.Vehicles
2016-01-28 19:46:05,885  INFO Injector:82    -> Key[type=org.matsim.core.scenario.ScenarioByInstanceModule$TransitVehiclesProvider, annotation=[none]]
2016-01-28 19:46:05,885  INFO Injector:81 org.matsim.vehicles.Vehicles
2016-01-28 19:46:05,895  INFO Injector:82    -> @Provides org.matsim.core.scenario.ScenarioByInstanceModule.provideVehicles(ScenarioByInstanceModule.java:59)
2016-01-28 19:46:05,896  INFO Injector:81 org.matsim.api.core.v01.network.Network
2016-01-28 19:46:05,896  INFO Injector:82    -> @Provides org.matsim.core.scenario.ScenarioByInstanceModule.provideNetwork(ScenarioByInstanceModule.java:37)
2016-01-28 19:46:05,896  INFO Injector:81 org.matsim.lanes.data.v20.Lanes
2016-01-28 19:46:05,897  INFO Injector:82    -> @Provides org.matsim.core.scenario.ScenarioByInstanceModule.provideLanes(ScenarioByInstanceModule.java:64)
2016-01-28 19:46:05,897  INFO Injector:81 org.matsim.api.core.v01.population.PopulationFactory
2016-01-28 19:46:05,898  INFO Injector:82    -> @Provides org.matsim.core.scenario.ScenarioByInstanceModule.providePopulationFactory(ScenarioByInstanceModule.java:45)
2016-01-28 19:46:05,898  INFO Injector:81 org.matsim.households.Households
2016-01-28 19:46:05,899  INFO Injector:82    -> @Provides org.matsim.core.scenario.ScenarioByInstanceModule.provideHouseholds(ScenarioByInstanceModule.java:54)
2016-01-28 19:46:05,899  INFO Injector:81 org.matsim.facilities.ActivityFacilities
2016-01-28 19:46:05,899  INFO Injector:82    -> @Provides org.matsim.core.scenario.ScenarioByInstanceModule.provideActivityFacilities(ScenarioByInstanceModule.java:49)
2016-01-28 19:46:05,899  INFO Injector:81 org.matsim.api.core.v01.population.Population
2016-01-28 19:46:05,900  INFO Injector:82    -> @Provides org.matsim.core.scenario.ScenarioByInstanceModule.providePopulation(ScenarioByInstanceModule.java:41)
2016-01-28 19:46:05,900  INFO Injector:81 org.matsim.core.controler.corelisteners.PlansScoring
2016-01-28 19:46:05,904  INFO Injector:82    -> FactoryProxy{key=Key[type=org.matsim.core.controler.corelisteners.PlansScoring, annotation=[none]], provider=com.google.inject.internal.ConstructorBindingImpl$Factory@223191a6[Scopes.SINGLETON]}
2016-01-28 19:46:05,904  INFO Injector:81 org.matsim.core.controler.corelisteners.PlansReplanning
2016-01-28 19:46:05,905  INFO Injector:82    -> FactoryProxy{key=Key[type=org.matsim.core.controler.corelisteners.PlansReplanning, annotation=[none]], provider=com.google.inject.internal.ConstructorBindingImpl$Factory@6069db50[Scopes.SINGLETON]}
2016-01-28 19:46:05,905  INFO Injector:81 org.matsim.core.controler.corelisteners.PlansDumping
2016-01-28 19:46:05,906  INFO Injector:82    -> FactoryProxy{key=Key[type=org.matsim.core.controler.corelisteners.PlansDumping, annotation=[none]], provider=com.google.inject.internal.ConstructorBindingImpl$Factory@59662a0b[Scopes.SINGLETON]}
2016-01-28 19:46:05,906  INFO Injector:81 org.matsim.core.controler.corelisteners.EventsHandling
2016-01-28 19:46:05,907  INFO Injector:82    -> FactoryProxy{key=Key[type=org.matsim.core.controler.corelisteners.EventsHandling, annotation=[none]], provider=com.google.inject.internal.ConstructorBindingImpl$Factory@1a482e36[Scopes.SINGLETON]}
2016-01-28 19:46:05,907  INFO Injector:81 org.matsim.core.controler.corelisteners.DumpDataAtEnd
2016-01-28 19:46:05,907  INFO Injector:82    -> FactoryProxy{key=Key[type=org.matsim.core.controler.corelisteners.DumpDataAtEnd, annotation=[none]], provider=com.google.inject.internal.ConstructorBindingImpl$Factory@2f9f7dcf[Scopes.SINGLETON]}
2016-01-28 19:46:05,908  INFO Injector:81 org.matsim.core.api.experimental.events.EventsManager
2016-01-28 19:46:05,909  INFO Injector:82    -> FactoryProxy{key=Key[type=org.matsim.core.api.experimental.events.EventsManager, annotation=[none]], provider=com.google.inject.internal.ConstructorBindingImpl$Factory@1bd4fdd}[Scopes.SINGLETON]
2016-01-28 19:46:05,909  INFO Injector:81 org.matsim.core.mobsim.framework.Mobsim
2016-01-28 19:46:05,910  INFO Injector:82    -> Key[type=org.matsim.core.mobsim.qsim.QSimProvider, annotation=[none]]
2016-01-28 19:46:05,910  INFO Injector:81 org.matsim.core.trafficmonitoring.TravelTimeCalculator
2016-01-28 19:46:05,911  INFO Injector:82    -> Key[type=org.matsim.core.trafficmonitoring.TravelTimeCalculatorModule$TravelTimeCalculatorProvider, annotation=[none]][Scopes.SINGLETON]
2016-01-28 19:46:05,912  INFO Injector:81 org.matsim.core.router.util.TravelTime
2016-01-28 19:46:05,912  INFO Injector:82    -> Key[type=org.matsim.core.trafficmonitoring.TravelTimeCalculatorModule$FromTravelTimeCalculator, annotation=[none]]
2016-01-28 19:46:05,912  INFO Injector:81 org.matsim.core.router.costcalculators.TravelDisutilityFactory
2016-01-28 19:46:05,913  INFO Injector:82    -> of(org.matsim.core.router.costcalculators.RandomizingTimeDistanceTravelDisutility$Builder@1283bb96)
2016-01-28 19:46:05,914  INFO Injector:81 org.matsim.core.scoring.ScoringFunctionFactory
2016-01-28 19:46:05,914  INFO Injector:82    -> FactoryProxy{key=Key[type=org.matsim.core.scoring.ScoringFunctionFactory, annotation=[none]], provider=com.google.inject.internal.ConstructorBindingImpl$Factory@3c19aaa5}
2016-01-28 19:46:05,915  INFO Injector:81 org.matsim.core.scoring.functions.CharyparNagelScoringParametersForPerson
2016-01-28 19:46:05,915  INFO Injector:82    -> FactoryProxy{key=Key[type=org.matsim.core.scoring.functions.CharyparNagelScoringParametersForPerson, annotation=[none]], provider=com.google.inject.internal.ConstructorBindingImpl$Factory@38d8f54a}
2016-01-28 19:46:05,916  INFO Injector:81 org.matsim.core.router.util.LeastCostPathCalculatorFactory
2016-01-28 19:46:05,916  INFO Injector:82    -> FactoryProxy{key=Key[type=org.matsim.core.router.util.LeastCostPathCalculatorFactory, annotation=[none]], provider=com.google.inject.internal.ConstructorBindingImpl$Factory@2a3b5b47[Scopes.SINGLETON]}
2016-01-28 19:46:05,917  INFO Injector:81 org.matsim.pt.router.TransitRouter
2016-01-28 19:46:05,917  INFO Injector:82    -> Key[type=org.matsim.pt.router.TransitRouterImplFactory, annotation=[none]]
2016-01-28 19:46:05,917  INFO Injector:81 org.matsim.core.router.RoutingModule
2016-01-28 19:46:05,918  INFO Injector:82    -> org.matsim.core.router.TripRouterFactoryModule$PseudoTransitRoutingModuleProvider@22a637e7
2016-01-28 19:46:05,918  INFO Injector:81 org.matsim.core.router.RoutingModule
2016-01-28 19:46:05,921  INFO Injector:82    -> org.matsim.core.router.TripRouterFactoryModule$TeleportationRoutingModuleProvider@6fe7aac8
2016-01-28 19:46:05,921  INFO Injector:81 org.matsim.core.router.RoutingModule
2016-01-28 19:46:05,922  INFO Injector:82    -> org.matsim.core.router.TripRouterFactoryModule$TeleportationRoutingModuleProvider@1d119efb
2016-01-28 19:46:05,922  INFO Injector:81 org.matsim.core.router.RoutingModule
2016-01-28 19:46:05,922  INFO Injector:82    -> org.matsim.core.router.TripRouterFactoryModule$TeleportationRoutingModuleProvider@659a969b
2016-01-28 19:46:05,922  INFO Injector:81 org.matsim.core.router.RoutingModule
2016-01-28 19:46:05,923  INFO Injector:82    -> org.matsim.core.router.TripRouterFactoryModule$NetworkRoutingModuleProvider@76908cc0
2016-01-28 19:46:05,923  INFO Injector:81 org.matsim.core.router.RoutingModule
2016-01-28 19:46:05,923  INFO Injector:82    -> Key[type=org.matsim.core.router.TripRouterFactoryModule$TransitRoutingModuleProvider, annotation=[none]]
2016-01-28 19:46:05,924  INFO Injector:81 org.matsim.core.router.RoutingModule
2016-01-28 19:46:05,924  INFO Injector:82    -> FactoryProxy{key=Key[type=org.matsim.core.router.RoutingModule, annotation=@com.google.inject.name.Named(value=transit_walk)], provider=org.matsim.core.router.TripRouterFactoryModule$TeleportationRoutingModuleProvider@1d119efb}
2016-01-28 19:46:05,924  INFO Injector:81 org.matsim.core.router.MainModeIdentifier
2016-01-28 19:46:05,925  INFO Injector:82    -> FactoryProxy{key=Key[type=org.matsim.core.router.MainModeIdentifier, annotation=[none]], provider=com.google.inject.internal.ConstructorBindingImpl$Factory@459e9125}
2016-01-28 19:46:05,925  INFO Injector:81 org.matsim.core.router.TripRouter
2016-01-28 19:46:05,925  INFO Injector:82    -> Key[type=org.matsim.core.router.TripRouterModule$RealTripRouterProvider, annotation=[none]]
2016-01-28 19:46:05,925  INFO Injector:81 org.matsim.core.replanning.selectors.GenericPlanSelector<org.matsim.api.core.v01.population.Plan, org.matsim.api.core.v01.population.Person>
2016-01-28 19:46:05,926  INFO Injector:82    -> FactoryProxy{key=Key[type=org.matsim.core.replanning.selectors.GenericPlanSelector<org.matsim.api.core.v01.population.Plan, org.matsim.api.core.v01.population.Person>, annotation=[none]], provider=com.google.inject.internal.ConstructorBindingImpl$Factory@368f2016}
2016-01-28 19:46:05,926  INFO Injector:81 org.matsim.core.replanning.PlanStrategy
2016-01-28 19:46:05,927  INFO Injector:82    -> Key[type=org.matsim.core.replanning.modules.KeepLastSelectedPlanStrategyFactory, annotation=[none]]
2016-01-28 19:46:05,927  INFO Injector:81 org.matsim.core.replanning.PlanStrategy
2016-01-28 19:46:05,927  INFO Injector:82    -> Key[type=org.matsim.core.replanning.modules.SelectBestPlanStrategyFactory, annotation=[none]]
2016-01-28 19:46:05,928  INFO Injector:81 org.matsim.core.replanning.PlanStrategy
2016-01-28 19:46:05,928  INFO Injector:82    -> Key[type=org.matsim.core.replanning.modules.SelectExpBetaPlanStrategyFactory, annotation=[none]]
2016-01-28 19:46:05,928  INFO Injector:81 org.matsim.core.replanning.PlanStrategy
2016-01-28 19:46:05,928  INFO Injector:82    -> Key[type=org.matsim.core.replanning.modules.ChangeExpBetaPlanStrategyFactory, annotation=[none]]
2016-01-28 19:46:05,929  INFO Injector:81 org.matsim.core.replanning.PlanStrategy
2016-01-28 19:46:05,929  INFO Injector:82    -> Key[type=org.matsim.core.replanning.modules.SelectRandomStrategyFactory, annotation=[none]]
2016-01-28 19:46:05,929  INFO Injector:81 org.matsim.core.replanning.PlanStrategy
2016-01-28 19:46:05,930  INFO Injector:82    -> Key[type=org.matsim.core.replanning.modules.SelectPathSizeLogitStrategyFactory, annotation=[none]]
2016-01-28 19:46:05,930  INFO Injector:81 org.matsim.core.replanning.PlanStrategy
2016-01-28 19:46:05,930  INFO Injector:82    -> Key[type=org.matsim.core.replanning.modules.ReRoutePlanStrategyFactory, annotation=[none]]
2016-01-28 19:46:05,930  INFO Injector:81 org.matsim.core.replanning.PlanStrategy
2016-01-28 19:46:05,931  INFO Injector:82    -> Key[type=org.matsim.core.replanning.modules.TimeAllocationMutatorPlanStrategyFactory, annotation=[none]]
2016-01-28 19:46:05,931  INFO Injector:81 org.matsim.core.replanning.PlanStrategy
2016-01-28 19:46:05,931  INFO Injector:82    -> Key[type=org.matsim.core.replanning.modules.TimeAllocationMutatorReRoutePlanStrategyFactory, annotation=[none]]
2016-01-28 19:46:05,931  INFO Injector:81 org.matsim.core.replanning.PlanStrategy
2016-01-28 19:46:05,932  INFO Injector:82    -> Key[type=org.matsim.core.replanning.modules.ChangeSingleLegModeStrategyFactory, annotation=[none]]
2016-01-28 19:46:05,932  INFO Injector:81 org.matsim.core.replanning.PlanStrategy
2016-01-28 19:46:05,932  INFO Injector:82    -> Key[type=org.matsim.core.replanning.modules.ChangeLegModeStrategyFactory, annotation=[none]]
2016-01-28 19:46:05,933  INFO Injector:81 org.matsim.core.replanning.PlanStrategy
2016-01-28 19:46:05,933  INFO Injector:82    -> Key[type=org.matsim.core.replanning.modules.SubtourModeChoiceStrategyFactory, annotation=[none]]
2016-01-28 19:46:05,933  INFO Injector:81 org.matsim.core.replanning.PlanStrategy
2016-01-28 19:46:05,933  INFO Injector:82    -> Key[type=org.matsim.core.replanning.modules.ChangeTripModeStrategyFactory, annotation=[none]]
2016-01-28 19:46:05,934  INFO Injector:81 org.matsim.core.replanning.PlanStrategy
2016-01-28 19:46:05,934  INFO Injector:82    -> Key[type=org.matsim.core.replanning.modules.ChangeSingleTripModeStrategyFactory, annotation=[none]]
2016-01-28 19:46:05,934  INFO Injector:81 org.matsim.core.replanning.PlanStrategy
2016-01-28 19:46:05,935  INFO Injector:82    -> Key[type=org.matsim.core.replanning.modules.TripSubtourModeChoiceStrategyFactory, annotation=[none]]
2016-01-28 19:46:05,935  INFO Injector:81 org.matsim.core.replanning.ReplanningContext
2016-01-28 19:46:05,935  INFO Injector:82    -> FactoryProxy{key=Key[type=org.matsim.core.replanning.ReplanningContext, annotation=[none]], provider=com.google.inject.internal.ConstructorBindingImpl$Factory@5fe94a96}
2016-01-28 19:46:05,936  INFO Injector:81 org.matsim.core.controler.listener.ControlerListener
2016-01-28 19:46:05,936  INFO Injector:82    -> FactoryProxy{key=Key[type=org.matsim.core.controler.listener.ControlerListener, annotation=@com.google.inject.multibindings.Element(setName=,uniqueId=143, type=MULTIBINDER, keyType=)], provider=com.google.inject.internal.ConstructorBindingImpl$Factory@74235045[Scopes.SINGLETON]}
2016-01-28 19:46:05,937  INFO Injector:81 org.matsim.core.controler.listener.ControlerListener
2016-01-28 19:46:05,937  INFO Injector:82    -> FactoryProxy{key=Key[type=org.matsim.core.controler.listener.ControlerListener, annotation=@com.google.inject.multibindings.Element(setName=,uniqueId=144, type=MULTIBINDER, keyType=)], provider=com.google.inject.internal.ConstructorBindingImpl$Factory@30c15d8b}
2016-01-28 19:46:05,937  INFO Injector:81 org.matsim.core.controler.listener.ControlerListener
2016-01-28 19:46:05,938  INFO Injector:82    -> FactoryProxy{key=Key[type=org.matsim.core.controler.listener.ControlerListener, annotation=@com.google.inject.multibindings.Element(setName=,uniqueId=145, type=MULTIBINDER, keyType=)], provider=com.google.inject.internal.ConstructorBindingImpl$Factory@51399530}
2016-01-28 19:46:05,938  INFO Injector:81 org.matsim.core.controler.listener.ControlerListener
2016-01-28 19:46:05,939  INFO Injector:82    -> FactoryProxy{key=Key[type=org.matsim.core.controler.listener.ControlerListener, annotation=@com.google.inject.multibindings.Element(setName=,uniqueId=146, type=MULTIBINDER, keyType=)], provider=com.google.inject.internal.ConstructorBindingImpl$Factory@2b71e916}
2016-01-28 19:46:05,939  INFO Injector:81 org.matsim.core.controler.listener.ControlerListener
2016-01-28 19:46:05,940  INFO Injector:82    -> FactoryProxy{key=Key[type=org.matsim.core.controler.listener.ControlerListener, annotation=@com.google.inject.multibindings.Element(setName=,uniqueId=147, type=MULTIBINDER, keyType=)], provider=com.google.inject.internal.ConstructorBindingImpl$Factory@13c9d689[Scopes.SINGLETON]}
2016-01-28 19:46:05,940  INFO Injector:81 org.matsim.analysis.ScoreStats
2016-01-28 19:46:05,940  INFO Injector:82    -> FactoryProxy{key=Key[type=org.matsim.analysis.ScoreStats, annotation=[none]], provider=com.google.inject.internal.ConstructorBindingImpl$Factory@13c9d689[Scopes.SINGLETON]}
2016-01-28 19:46:05,940  INFO Injector:81 org.matsim.core.controler.listener.ControlerListener
2016-01-28 19:46:05,941  INFO Injector:82    -> FactoryProxy{key=Key[type=org.matsim.core.controler.listener.ControlerListener, annotation=@com.google.inject.multibindings.Element(setName=,uniqueId=148, type=MULTIBINDER, keyType=)], provider=com.google.inject.internal.ConstructorBindingImpl$Factory@5bf0d49}
2016-01-28 19:46:05,941  INFO Injector:81 org.matsim.counts.Counts<org.matsim.api.core.v01.network.Link>
2016-01-28 19:46:05,944  INFO Injector:82    -> @Provides org.matsim.counts.CountsModule.provideLinkCounts(CountsModule.java:59)[Scopes.SINGLETON]
2016-01-28 19:46:05,944  INFO Injector:81 org.matsim.core.controler.listener.ControlerListener
2016-01-28 19:46:05,945  INFO Injector:82    -> FactoryProxy{key=Key[type=org.matsim.core.controler.listener.ControlerListener, annotation=@com.google.inject.multibindings.Element(setName=,uniqueId=149, type=MULTIBINDER, keyType=)], provider=com.google.inject.internal.ConstructorBindingImpl$Factory@557caf28}
2016-01-28 19:46:05,945  INFO Injector:81 org.matsim.core.controler.OutputDirectoryHierarchy
2016-01-28 19:46:05,945  INFO Injector:82    -> of(org.matsim.core.controler.OutputDirectoryHierarchy@3c46e67a)
2016-01-28 19:46:05,946  INFO Injector:81 org.matsim.analysis.IterationStopWatch
2016-01-28 19:46:05,946  INFO Injector:82    -> of(org.matsim.analysis.IterationStopWatch@292b08d6)
2016-01-28 19:46:05,946  INFO Injector:81 org.matsim.core.controler.ControlerI
2016-01-28 19:46:05,947  INFO Injector:82    -> of(org.matsim.core.controler.Controler$2$1@45752059)
2016-01-28 19:46:05,947  INFO Injector:81 org.matsim.core.router.RoutingModule
2016-01-28 19:46:05,947  INFO Injector:82    -> FactoryProxy{key=Key[type=org.matsim.core.router.RoutingModule, annotation=@com.google.inject.multibindings.Element(setName=,uniqueId=150, type=MAPBINDER, keyType=java.lang.String)], provider=Key[type=org.matsim.core.router.TripRouterFactoryModule$TransitRoutingModuleProvider, annotation=[none]]}
2016-01-28 19:46:05,948  INFO Injector:81 org.matsim.core.router.RoutingModule
2016-01-28 19:46:05,948  INFO Injector:82    -> FactoryProxy{key=Key[type=org.matsim.core.router.RoutingModule, annotation=@com.google.inject.multibindings.Element(setName=,uniqueId=152, type=MAPBINDER, keyType=java.lang.String)], provider=org.matsim.core.router.TripRouterFactoryModule$NetworkRoutingModuleProvider@76908cc0}
2016-01-28 19:46:05,949  INFO Injector:81 org.matsim.core.router.RoutingModule
2016-01-28 19:46:05,950  INFO Injector:82    -> FactoryProxy{key=Key[type=org.matsim.core.router.RoutingModule, annotation=@com.google.inject.multibindings.Element(setName=,uniqueId=154, type=MAPBINDER, keyType=java.lang.String)], provider=FactoryProxy{key=Key[type=org.matsim.core.router.RoutingModule, annotation=@com.google.inject.name.Named(value=transit_walk)], provider=org.matsim.core.router.TripRouterFactoryModule$TeleportationRoutingModuleProvider@1d119efb}}
2016-01-28 19:46:05,950  INFO Injector:81 org.matsim.core.router.RoutingModule
2016-01-28 19:46:05,951  INFO Injector:82    -> FactoryProxy{key=Key[type=org.matsim.core.router.RoutingModule, annotation=@com.google.inject.multibindings.Element(setName=,uniqueId=156, type=MAPBINDER, keyType=java.lang.String)], provider=org.matsim.core.router.TripRouterFactoryModule$PseudoTransitRoutingModuleProvider@22a637e7}
2016-01-28 19:46:05,951  INFO Injector:81 org.matsim.core.router.RoutingModule
2016-01-28 19:46:05,952  INFO Injector:82    -> FactoryProxy{key=Key[type=org.matsim.core.router.RoutingModule, annotation=@com.google.inject.multibindings.Element(setName=,uniqueId=158, type=MAPBINDER, keyType=java.lang.String)], provider=org.matsim.core.router.TripRouterFactoryModule$TeleportationRoutingModuleProvider@1d119efb}
2016-01-28 19:46:05,952  INFO Injector:81 org.matsim.core.router.RoutingModule
2016-01-28 19:46:05,952  INFO Injector:82    -> FactoryProxy{key=Key[type=org.matsim.core.router.RoutingModule, annotation=@com.google.inject.multibindings.Element(setName=,uniqueId=160, type=MAPBINDER, keyType=java.lang.String)], provider=org.matsim.core.router.TripRouterFactoryModule$TeleportationRoutingModuleProvider@6fe7aac8}
2016-01-28 19:46:05,953  INFO Injector:81 org.matsim.core.router.RoutingModule
2016-01-28 19:46:05,953  INFO Injector:82    -> FactoryProxy{key=Key[type=org.matsim.core.router.RoutingModule, annotation=@com.google.inject.multibindings.Element(setName=,uniqueId=162, type=MAPBINDER, keyType=java.lang.String)], provider=org.matsim.core.router.TripRouterFactoryModule$TeleportationRoutingModuleProvider@659a969b}
2016-01-28 19:46:05,954  INFO Injector:81 org.matsim.core.router.util.TravelTime
2016-01-28 19:46:05,954  INFO Injector:82    -> FactoryProxy{key=Key[type=org.matsim.core.router.util.TravelTime, annotation=@com.google.inject.multibindings.Element(setName=,uniqueId=164, type=MAPBINDER, keyType=java.lang.String)], provider=Key[type=org.matsim.core.trafficmonitoring.TravelTimeCalculatorModule$FromTravelTimeCalculator, annotation=[none]]}
2016-01-28 19:46:05,954  INFO Injector:81 org.matsim.core.router.costcalculators.TravelDisutilityFactory
2016-01-28 19:46:05,955  INFO Injector:82    -> FactoryProxy{key=Key[type=org.matsim.core.router.costcalculators.TravelDisutilityFactory, annotation=@com.google.inject.multibindings.Element(setName=,uniqueId=166, type=MAPBINDER, keyType=java.lang.String)], provider=ConstantFactory{value=org.matsim.core.router.costcalculators.RandomizingTimeDistanceTravelDisutility$Builder@1283bb96}[Scopes.SINGLETON]}
2016-01-28 19:46:05,956  INFO Injector:81 org.matsim.core.scoring.EventsToScore
2016-01-28 19:46:05,956  INFO Injector:82    -> com.google.inject.internal.ConstructorBindingImpl$Factory@1573f9fc
2016-01-28 19:46:05,957  INFO Injector:81 org.matsim.core.router.SingleModeNetworksCache
2016-01-28 19:46:05,957  INFO Injector:82    -> com.google.inject.internal.ConstructorBindingImpl$Factory@7e6f74c[Scopes.SINGLETON]
2016-01-28 19:46:05,957  INFO Injector:81 org.matsim.core.replanning.StrategyManager
2016-01-28 19:46:05,958  INFO Injector:82    -> com.google.inject.internal.ConstructorBindingImpl$Factory@2f4948e4[Scopes.SINGLETON]
2016-01-28 19:46:05,959  INFO Injector:81 org.matsim.analysis.CalcLinkStats
2016-01-28 19:46:05,959  INFO Injector:82    -> com.google.inject.internal.ConstructorBindingImpl$Factory@3fc2959f[Scopes.SINGLETON]
2016-01-28 19:46:05,959  INFO Injector:81 org.matsim.analysis.LinkStatsControlerListener
2016-01-28 19:46:05,960  INFO Injector:82    -> com.google.inject.internal.ConstructorBindingImpl$Factory@74235045[Scopes.SINGLETON]
2016-01-28 19:46:05,961  INFO Injector:81 org.matsim.analysis.VolumesAnalyzer
2016-01-28 19:46:05,961  INFO Injector:82    -> com.google.inject.internal.ConstructorBindingImpl$Factory@682b2fa[Scopes.SINGLETON]
2016-01-28 19:46:05,962  INFO Injector:81 org.matsim.analysis.LegHistogram
2016-01-28 19:46:05,962  INFO Injector:82    -> com.google.inject.internal.ConstructorBindingImpl$Factory@229f66ed
2016-01-28 19:46:05,962  INFO Injector:81 org.matsim.analysis.CalcLegTimes
2016-01-28 19:46:05,963  INFO Injector:82    -> com.google.inject.internal.ConstructorBindingImpl$Factory@6743e411[Scopes.SINGLETON]
2016-01-28 19:46:05,963  INFO Injector:81 org.matsim.analysis.TravelDistanceStats
2016-01-28 19:46:05,964  INFO Injector:82    -> com.google.inject.internal.ConstructorBindingImpl$Factory@77c2494c[Scopes.SINGLETON]
2016-01-28 19:46:05,964  INFO Injector:81 org.matsim.analysis.ScoreStatsControlerListener
2016-01-28 19:46:05,964  INFO Injector:82    -> com.google.inject.internal.ConstructorBindingImpl$Factory@13c9d689[Scopes.SINGLETON]
2016-01-28 19:46:05,965  INFO Injector:81 org.matsim.counts.CountsModule$CountsInitializer
2016-01-28 19:46:05,965  INFO Injector:82    -> com.google.inject.internal.ConstructorBindingImpl$Factory@1e800aaa[Scopes.SINGLETON]
2016-01-28 19:46:06,043  INFO StrategyManager:67 global innovation switch off after iteration: 0
2016-01-28 19:46:06,048  INFO GenericStrategyManager:315 added change request:  iteration=1 newWeight=0.0 strategy=RandomPlanSelector_ReRoute
2016-01-28 19:46:06,048  INFO GenericStrategyManager:315 added change request:  iteration=1 newWeight=0.0 strategy=RandomPlanSelector_TimeAllocationMutator
2016-01-28 19:46:06,049  INFO GenericStrategyManager:347 setting PlanSelectorForRemoval to class org.matsim.core.replanning.selectors.WorstPlanForRemovalSelector
2016-01-28 19:46:08,830  INFO EventsManagerImpl:144 adding Event-Handler: org.matsim.core.scoring.EventsToScore
2016-01-28 19:46:08,831  INFO EventsManagerImpl:148   org.matsim.core.events.handler.BasicEventHandler
2016-01-28 19:46:08,831  INFO EventsManagerImpl:207     > org.matsim.api.core.v01.events.Event
2016-01-28 19:46:08,832  INFO EventsManagerImpl:156 
2016-01-28 19:46:08,832  INFO EventsManagerImpl:144 adding Event-Handler: org.matsim.core.scoring.EventsToScore
2016-01-28 19:46:08,832  INFO EventsManagerImpl:148   org.matsim.core.events.handler.BasicEventHandler
2016-01-28 19:46:08,832  INFO EventsManagerImpl:207     > org.matsim.api.core.v01.events.Event
2016-01-28 19:46:08,833  INFO EventsManagerImpl:156 
2016-01-28 19:46:08,834  INFO EventsManagerImpl:144 adding Event-Handler: org.matsim.analysis.LegHistogram
2016-01-28 19:46:08,834  INFO EventsManagerImpl:148   org.matsim.api.core.v01.events.handler.PersonDepartureEventHandler
2016-01-28 19:46:08,834  INFO EventsManagerImpl:207     > org.matsim.api.core.v01.events.PersonDepartureEvent
2016-01-28 19:46:08,835  INFO EventsManagerImpl:148   org.matsim.api.core.v01.events.handler.PersonArrivalEventHandler
2016-01-28 19:46:08,835  INFO EventsManagerImpl:207     > org.matsim.api.core.v01.events.PersonArrivalEvent
2016-01-28 19:46:08,835  INFO EventsManagerImpl:148   org.matsim.api.core.v01.events.handler.PersonStuckEventHandler
2016-01-28 19:46:08,836  INFO EventsManagerImpl:207     > org.matsim.api.core.v01.events.PersonStuckEvent
2016-01-28 19:46:08,836  INFO EventsManagerImpl:156 
2016-01-28 19:46:08,837  INFO EventsManagerImpl:144 adding Event-Handler: org.matsim.analysis.LegHistogram
2016-01-28 19:46:08,837  INFO EventsManagerImpl:148   org.matsim.api.core.v01.events.handler.PersonDepartureEventHandler
2016-01-28 19:46:08,837  INFO EventsManagerImpl:207     > org.matsim.api.core.v01.events.PersonDepartureEvent
2016-01-28 19:46:08,837  INFO EventsManagerImpl:148   org.matsim.api.core.v01.events.handler.PersonArrivalEventHandler
2016-01-28 19:46:08,838  INFO EventsManagerImpl:207     > org.matsim.api.core.v01.events.PersonArrivalEvent
2016-01-28 19:46:08,838  INFO EventsManagerImpl:148   org.matsim.api.core.v01.events.handler.PersonStuckEventHandler
2016-01-28 19:46:08,838  INFO EventsManagerImpl:207     > org.matsim.api.core.v01.events.PersonStuckEvent
2016-01-28 19:46:08,838  INFO EventsManagerImpl:156 
2016-01-28 19:46:08,839  INFO EventsManagerImpl:144 adding Event-Handler: org.matsim.analysis.CalcLegTimes
2016-01-28 19:46:08,839  INFO EventsManagerImpl:148   org.matsim.api.core.v01.events.handler.PersonDepartureEventHandler
2016-01-28 19:46:08,839  INFO EventsManagerImpl:207     > org.matsim.api.core.v01.events.PersonDepartureEvent
2016-01-28 19:46:08,840  INFO EventsManagerImpl:148   org.matsim.api.core.v01.events.handler.PersonArrivalEventHandler
2016-01-28 19:46:08,840  INFO EventsManagerImpl:207     > org.matsim.api.core.v01.events.PersonArrivalEvent
2016-01-28 19:46:08,840  INFO EventsManagerImpl:148   org.matsim.api.core.v01.events.handler.ActivityEndEventHandler
2016-01-28 19:46:08,840  INFO EventsManagerImpl:207     > org.matsim.api.core.v01.events.ActivityEndEvent
2016-01-28 19:46:08,841  INFO EventsManagerImpl:148   org.matsim.api.core.v01.events.handler.ActivityStartEventHandler
2016-01-28 19:46:08,841  INFO EventsManagerImpl:207     > org.matsim.api.core.v01.events.ActivityStartEvent
2016-01-28 19:46:08,841  INFO EventsManagerImpl:156 
2016-01-28 19:46:08,841  INFO EventsManagerImpl:144 adding Event-Handler: org.matsim.analysis.CalcLegTimes
2016-01-28 19:46:08,842  INFO EventsManagerImpl:148   org.matsim.api.core.v01.events.handler.PersonDepartureEventHandler
2016-01-28 19:46:08,842  INFO EventsManagerImpl:207     > org.matsim.api.core.v01.events.PersonDepartureEvent
2016-01-28 19:46:08,842  INFO EventsManagerImpl:148   org.matsim.api.core.v01.events.handler.PersonArrivalEventHandler
2016-01-28 19:46:08,842  INFO EventsManagerImpl:207     > org.matsim.api.core.v01.events.PersonArrivalEvent
2016-01-28 19:46:08,843  INFO EventsManagerImpl:148   org.matsim.api.core.v01.events.handler.ActivityEndEventHandler
2016-01-28 19:46:08,843  INFO EventsManagerImpl:207     > org.matsim.api.core.v01.events.ActivityEndEvent
2016-01-28 19:46:08,843  INFO EventsManagerImpl:148   org.matsim.api.core.v01.events.handler.ActivityStartEventHandler
2016-01-28 19:46:08,843  INFO EventsManagerImpl:207     > org.matsim.api.core.v01.events.ActivityStartEvent
2016-01-28 19:46:08,844  INFO EventsManagerImpl:156 
2016-01-28 19:46:09,246  INFO EventsManagerImpl:144 adding Event-Handler: org.matsim.core.scoring.EventsToScore
2016-01-28 19:46:09,247  INFO EventsManagerImpl:148   org.matsim.core.events.handler.BasicEventHandler
2016-01-28 19:46:09,247  INFO EventsManagerImpl:207     > org.matsim.api.core.v01.events.Event
2016-01-28 19:46:09,247  INFO EventsManagerImpl:156 
2016-01-28 19:46:09,247  INFO EventsManagerImpl:144 adding Event-Handler: org.matsim.core.scoring.EventsToScore
2016-01-28 19:46:09,248  INFO EventsManagerImpl:148   org.matsim.core.events.handler.BasicEventHandler
2016-01-28 19:46:09,248  INFO EventsManagerImpl:207     > org.matsim.api.core.v01.events.Event
2016-01-28 19:46:09,248  INFO EventsManagerImpl:156 
2016-01-28 19:46:09,256  INFO ControlerListenerManager:108 calling notifyStartup on org.matsim.counts.CountsControlerListener
2016-01-28 19:46:09,256  INFO ControlerListenerManager:108 calling notifyStartup on org.matsim.analysis.ScoreStatsControlerListener
2016-01-28 19:46:09,257  INFO ControlerListenerManager:111 all ControlerStartupListeners called.
2016-01-28 19:46:09,319  INFO ControlerUtils:57 config dump before iterations start
2016-01-28 19:46:09,380  INFO ControlerUtils:61 

<?xml version="1.0" encoding="UTF-8"?>
<!DOCTYPE config SYSTEM "http://www.matsim.org/files/dtd/config_v2.dtd">
<config>

<!-- ====================================================================== -->

	<module name="TimeAllocationMutator" >
		<param name="mutationAffectsDuration" value="true" />

		<!-- Default:1800.0; Defines how many seconds a time mutation can maximally shift a time. -->
		<param name="mutationRange" value="7200.0" />
	</module>

<!-- ====================================================================== -->

	<module name="changeLegMode" >
		<param name="ignoreCarAvailability" value="true" />
		<param name="modes" value="car,pt" />
	</module>

<!-- ====================================================================== -->

	<module name="controler" >

		<!-- Sets whether graphs showing some analyses should automatically be generated during the simulation. The generation of graphs usually takes a small amount of time that does not have any weight in big simulations, but add a significant overhead in smaller runs or in test cases where the graphical output is not even requested. -->
		<param name="createGraphs" value="true" />

		<!-- true if at the end of a run, plans, network, config etc should be dumped to a file -->
		<param name="dumpDataAtEnd" value="true" />

		<!-- Default=false;  -->
		<param name="enableLinkToLinkRouting" value="false" />

		<!-- Default=xml; Specifies the file format for writing events. Currently supported: txt, xml.
		Multiple values can be specified separated by commas (','). -->
		<param name="eventsFileFormat" value="xml" />

		<!-- Default=0;  -->
		<param name="firstIteration" value="0" />

		<!-- Default=1000;  -->
		<param name="lastIteration" value="0" />

		<!-- Defines which mobility simulation will be used. Currently supported: qsim JDEQSim 
		Depending on the chosen mobsim, you'll have to add additional config modules to configure the corresponding mobsim.
		For 'qsim', add a module 'qsim' to the config. -->
		<param name="mobsim" value="qsim" />

		<param name="outputDirectory" value="./output" />

		<!-- Possible values: failIfDirectoryExists, overwriteExistingFiles, deleteDirectoryIfExists -->
		<param name="overwriteFiles" value="failIfDirectoryExists" />

		<!-- The type of routing (least cost path) algorithm used, may have the values: Dijkstra, FastDijkstra, AStarLandmarks or FastAStarLandmarks -->
		<param name="routingAlgorithmType" value="Dijkstra" />

		<!-- An identifier for the current run which is used as prefix for output files and mentioned in output xml files etc. -->
		<param name="runId" value="null" />

		<!-- Comma-separated list of visualizer output file formats. `transims', `googleearth', and `otfvis'. -->
		<param name="snapshotFormat" value="" />

		<!-- iterationNumber % writeEventsInterval == 0 defines in which iterations events are written to a file. `0' disables events writing completely. -->
		<param name="writeEventsInterval" value="1" />

		<!-- iterationNumber % writePlansInterval == 0 defines (hopefully) in which iterations plans are written to a file. `0' disables plans writing completely.  Some plans in early iterations are always written -->
		<param name="writePlansInterval" value="1" />

		<!-- iterationNumber % writeSnapshotsInterval == 0 defines in which iterations snapshots are written to a file. `0' disables snapshots writing completely -->
		<param name="writeSnapshotsInterval" value="1" />
	</module>

<!-- ====================================================================== -->

	<module name="counts" >

		<!-- Transport modes that will be respected for the counts comparison. 'car' is default, which includes also bussed from the pt simulation module. Use this parameter in combination with 'filterModes' = true! -->
		<param name="analyzedModes" value="car" />

		<!-- Specifies over how many iterations the link volumes should be averaged that are used for the counts comparison. Use 1 or 0 to only use the link volumes of a single iteration. This values cannot be larger than the value specified for writeCountsInterval -->
		<param name="averageCountsOverIterations" value="5" />

		<!-- factor by which to re-scale the simulated values.  necessary when simulation runs with something different from 100%.  needs to be adapted manually -->
		<param name="countsScaleFactor" value="1.0" />

		<!-- distance to distanceFilterCenterNode to include counting stations. The unit of distance is the Euclidean distance implied by the coordinate system -->
		<param name="distanceFilter" value="null" />

		<!-- node id for center node of distance filter -->
		<param name="distanceFilterCenterNode" value="null" />

		<!-- If true, link counts from legs performed on modes not included in the 'analyzedModes' parameter are ignored. -->
		<param name="filterModes" value="false" />

		<!-- input file name to counts package -->
		<param name="inputCountsFile" value="null" />

		<!-- possible values: `html', `kml', `txt', `all' -->
		<param name="outputformat" value="txt" />

		<!-- Specifies how often the counts comparison should be calculated and written. -->
		<param name="writeCountsInterval" value="10" />
	</module>

<!-- ====================================================================== -->

	<module name="facilities" >
		<param name="inputFacilitiesFile" value="null" />
		<param name="inputFacilityAttributesFile" value="null" />
	</module>

<!-- ====================================================================== -->

	<module name="global" >
		<param name="coordinateSystem" value="EPSG:3115" />

		<!-- "global" number of threads.  This number is used, e.g., for replanning, but NOT in the mobsim.  This can typically be set to as many cores as you have available, or possibly even slightly more. -->
		<param name="numberOfThreads" value="8" />

		<param name="randomSeed" value="5399998864266990000" />
	</module>

<!-- ====================================================================== -->

	<module name="households" >
		<param name="inputFile" value="null" />
		<param name="inputHouseholdAttributesFile" value="null" />
	</module>

<!-- ====================================================================== -->

	<module name="linkStats" >

		<!-- Specifies over how many iterations the link volumes should be averaged that are used for the link statistics. Use 1 or 0 to only use the link volumes of a single iteration. This values cannot be larger than the value specified for writeLinkStatsInterval -->
		<param name="averageLinkStatsOverIterations" value="1" />

		<!-- Specifies how often the link stats should be calculated and written. Use 0 to disable the generation of link stats. -->
		<param name="writeLinkStatsInterval" value="1" />
	</module>

<!-- ====================================================================== -->

	<module name="network" >
		<param name="inputChangeEventsFile" value="null" />
		<param name="inputNetworkFile" value="./input/specialNetwork.xml" />
		<param name="laneDefinitionsFile" value="null" />
		<param name="timeVariantNetwork" value="false" />
	</module>

<!-- ====================================================================== -->

	<module name="parallelEventHandling" >

		<!-- Estimated number of events during mobsim run. An optional optimization hint for the framework. -->
		<param name="estimatedNumberOfEvents" value="null" />

		<!-- Number of threads for parallel events handler. 0 or null means the framework decides by itself. -->
		<param name="numberOfThreads" value="null" />

		<!-- If enabled, each event handler is assigned to its own thread. Note that enabling this feature disabled the numberOfThreads option! This feature is still experimental! -->
		<param name="oneThreadPerHandler" value="false" />

		<!-- If enabled, it is ensured that all events that are created during a time step of the mobility simulation are processed before the next time step is simulated. E.g. neccessary when within-day replanning is used. -->
		<param name="synchronizeOnSimSteps" value="true" />
	</module>

<!-- ====================================================================== -->

	<module name="planCalcScore" >

		<!-- logit model scale parameter. default: 1.  Has name and default value for historical reasons (see Bryan Raney's phd thesis). -->
		<param name="BrainExpBeta" value="2.0" />

		<param name="PathSizeLogitBeta" value="1.0" />

		<!-- fraction of iterations at which MSA score averaging is started. The matsim theory department suggests to use this together with switching off choice set innovation (where a similar switch exists), but it has not been tested yet. -->
		<param name="fractionOfIterationsToStartScoreMSA" value="null" />

		<!-- new_score = (1-learningRate)*old_score + learningRate * score_from_mobsim.  learning rates close to zero emulate score averaging, but slow down initial convergence -->
		<param name="learningRate" value="1.0" />

		<!-- There used to be a plateau between duration=0 and duration=zeroUtilityDuration. This caused durations to evolve to zero once they were below zeroUtilityDuration, causing problems.  Only use this switch if you need to be backwards compatible with some old results.  (changed nov'13) -->
		<param name="usingOldScoringBelowZeroUtilityDuration" value="false" />

		<!-- write a plans file in each iteration directory which contains what each agent actually did, and the score it received. -->
		<param name="writeExperiencedPlans" value="false" />

		<parameterset type="scoringParameters" >
			<param name="earlyDeparture" value="0.0" />
			<param name="lateArrival" value="0.0" />
			<param name="marginalUtilityOfMoney" value="1.0" />
			<param name="performing" value="6.0" />
			<param name="subpopulation" value="null" />
			<param name="utilityOfLineSwitch" value="-1.0" />
			<param name="waiting" value="0.0" />
			<param name="waitingPt" value="0.0" />

			<parameterset type="activityParams" >
				<param name="activityType" value="h" />
				<param name="closingTime" value="undefined" />
				<param name="earliestEndTime" value="undefined" />
				<param name="latestStartTime" value="undefined" />
				<param name="minimalDuration" value="08:00:00" />
				<param name="openingTime" value="undefined" />
				<param name="priority" value="1.0" />
				<param name="scoringThisActivityAtAll" value="true" />
				<param name="typicalDuration" value="12:00:00" />

				<!-- method to compute score at typical duration.  Use uniform for backwards compatibility (all activities same score; higher proba to drop long acts). -->
				<param name="typicalDurationScoreComputation" value="uniform" />
			</parameterset>

			<parameterset type="activityParams" >
				<param name="activityType" value="w" />
				<param name="closingTime" value="18:00:00" />
				<param name="earliestEndTime" value="16:00:00" />
				<param name="latestStartTime" value="09:00:00" />
				<param name="minimalDuration" value="06:00:00" />
				<param name="openingTime" value="07:00:00" />
				<param name="priority" value="1.0" />
				<param name="scoringThisActivityAtAll" value="true" />
				<param name="typicalDuration" value="08:00:00" />

				<!-- method to compute score at typical duration.  Use uniform for backwards compatibility (all activities same score; higher proba to drop long acts). -->
				<param name="typicalDurationScoreComputation" value="uniform" />
			</parameterset>

			<parameterset type="activityParams" >
				<param name="activityType" value="pt interaction" />
				<param name="closingTime" value="00:00:00" />
				<param name="earliestEndTime" value="undefined" />
				<param name="latestStartTime" value="undefined" />
				<param name="minimalDuration" value="undefined" />
				<param name="openingTime" value="00:00:00" />
				<param name="priority" value="1.0" />
				<param name="scoringThisActivityAtAll" value="true" />
				<param name="typicalDuration" value="00:02:00" />

				<!-- method to compute score at typical duration.  Use uniform for backwards compatibility (all activities same score; higher proba to drop long acts). -->
				<param name="typicalDurationScoreComputation" value="uniform" />
			</parameterset>

			<parameterset type="modeParams" >

				<!-- [utils] alternative-specific constant.  no guarantee that this is used anywhere. default=0 to be backwards compatible for the time being -->
				<param name="constant" value="0.0" />

				<!-- [utils/m] utility of walking per m, normally negative.  this is on top of the time (dis)utility. -->
				<param name="marginalUtilityOfDistance_util_m" value="0.0" />

				<!-- [utils/hr] additional marginal utility of traveling.  normally negative.  this comes on top of the opportunity cost of time -->
				<param name="marginalUtilityOfTraveling_util_hr" value="0.0" />

				<param name="mode" value="car" />
				<param name="monetaryDistanceRate" value="0.0" />
			</parameterset>

			<parameterset type="modeParams" >

				<!-- [utils] alternative-specific constant.  no guarantee that this is used anywhere. default=0 to be backwards compatible for the time being -->
				<param name="constant" value="0.0" />

				<!-- [utils/m] utility of walking per m, normally negative.  this is on top of the time (dis)utility. -->
				<param name="marginalUtilityOfDistance_util_m" value="0.0" />

				<!-- [utils/hr] additional marginal utility of traveling.  normally negative.  this comes on top of the opportunity cost of time -->
				<param name="marginalUtilityOfTraveling_util_hr" value="0.0" />

				<param name="mode" value="pt" />
				<param name="monetaryDistanceRate" value="0.0" />
			</parameterset>

			<parameterset type="modeParams" >

				<!-- [utils] alternative-specific constant.  no guarantee that this is used anywhere. default=0 to be backwards compatible for the time being -->
				<param name="constant" value="0.0" />

				<!-- [utils/m] utility of walking per m, normally negative.  this is on top of the time (dis)utility. -->
				<param name="marginalUtilityOfDistance_util_m" value="0.0" />

				<!-- [utils/hr] additional marginal utility of traveling.  normally negative.  this comes on top of the opportunity cost of time -->
				<param name="marginalUtilityOfTraveling_util_hr" value="-6.0" />

				<param name="mode" value="walk" />
				<param name="monetaryDistanceRate" value="0.0" />
			</parameterset>

			<parameterset type="modeParams" >

				<!-- [utils] alternative-specific constant.  no guarantee that this is used anywhere. default=0 to be backwards compatible for the time being -->
				<param name="constant" value="0.0" />

				<!-- [utils/m] utility of walking per m, normally negative.  this is on top of the time (dis)utility. -->
				<param name="marginalUtilityOfDistance_util_m" value="0.0" />

				<!-- [utils/hr] additional marginal utility of traveling.  normally negative.  this comes on top of the opportunity cost of time -->
				<param name="marginalUtilityOfTraveling_util_hr" value="-6.0" />

				<param name="mode" value="bike" />
				<param name="monetaryDistanceRate" value="0.0" />
			</parameterset>

			<parameterset type="modeParams" >

				<!-- [utils] alternative-specific constant.  no guarantee that this is used anywhere. default=0 to be backwards compatible for the time being -->
				<param name="constant" value="0.0" />

				<!-- [utils/m] utility of walking per m, normally negative.  this is on top of the time (dis)utility. -->
				<param name="marginalUtilityOfDistance_util_m" value="0.0" />

				<!-- [utils/hr] additional marginal utility of traveling.  normally negative.  this comes on top of the opportunity cost of time -->
				<param name="marginalUtilityOfTraveling_util_hr" value="-6.0" />

				<param name="mode" value="other" />
				<param name="monetaryDistanceRate" value="0.0" />
			</parameterset>
		</parameterset>
	</module>

<!-- ====================================================================== -->

	<module name="plans" >

		<!-- String: minOfDurationAndEndTime tryEndTimeThenDuration endTimeOnly. Anything besides minOfDurationAndEndTime will internally use a different (simpler) version of the TimeAllocationMutator. -->
		<param name="activityDurationInterpretation" value="tryEndTimeThenDuration" />

		<!-- Path to a file containing person attributes (required file format: ObjectAttributes). -->
		<param name="inputPersonAttributesFile" value="null" />

		<param name="inputPlansFile" value="./input/plans_sitm_cali_01.04.2014_final.xml" />

		<!-- Defines how routes are stored in memory. Currently supported: LinkNetworkRoute, CompressedNetworkRoute. -->
		<param name="networkRouteType" value="LinkNetworkRoute" />

		<!-- (not tested) will remove plan attributes that are presumably not used, such as activityStartTime. default=false -->
		<param name="removingUnnecessaryPlanAttributes" value="false" />

		<!-- Name of the (Object)Attribute defining the subpopulation to which pertains a Person (as freight, through traffic, etc.). The attribute must be of String type. -->
		<param name="subpopulationAttributeName" value="subpopulation" />
	</module>

<!-- ====================================================================== -->

	<module name="planscalcroute" >

		<!-- All the modes for which the router is supposed to generate network routes (like car) -->
		<param name="networkModes" value="car" />

		<parameterset type="teleportedModeParameters" >
			<param name="beelineDistanceFactor" value="1.3" />
			<param name="mode" value="bike" />

			<!-- Free-speed factor for a teleported mode. Travel time = teleportedModeFreespeedFactor * <freespeed car travel time>. Insert a line like this for every such mode. Please do not set teleportedModeFreespeedFactor as well as teleportedModeSpeed for the same mode, but if you do, +teleportedModeFreespeedFactor wins over teleportedModeSpeed. -->
			<param name="teleportedModeFreespeedFactor" value="null" />

			<!-- Speed for a teleported mode. Travel time = (<beeline distance> * beelineDistanceFactor) / teleportedModeSpeed. Insert a line like this for every such mode. -->
			<param name="teleportedModeSpeed" value="4.166666666666667" />
		</parameterset>

		<parameterset type="teleportedModeParameters" >
			<param name="beelineDistanceFactor" value="1.3" />
			<param name="mode" value="walk" />

			<!-- Free-speed factor for a teleported mode. Travel time = teleportedModeFreespeedFactor * <freespeed car travel time>. Insert a line like this for every such mode. Please do not set teleportedModeFreespeedFactor as well as teleportedModeSpeed for the same mode, but if you do, +teleportedModeFreespeedFactor wins over teleportedModeSpeed. -->
			<param name="teleportedModeFreespeedFactor" value="null" />

			<!-- Speed for a teleported mode. Travel time = (<beeline distance> * beelineDistanceFactor) / teleportedModeSpeed. Insert a line like this for every such mode. -->
			<param name="teleportedModeSpeed" value="0.8333333333333333" />
		</parameterset>

		<parameterset type="teleportedModeParameters" >
			<param name="beelineDistanceFactor" value="1.3" />
			<param name="mode" value="undefined" />

			<!-- Free-speed factor for a teleported mode. Travel time = teleportedModeFreespeedFactor * <freespeed car travel time>. Insert a line like this for every such mode. Please do not set teleportedModeFreespeedFactor as well as teleportedModeSpeed for the same mode, but if you do, +teleportedModeFreespeedFactor wins over teleportedModeSpeed. -->
			<param name="teleportedModeFreespeedFactor" value="null" />

			<!-- Speed for a teleported mode. Travel time = (<beeline distance> * beelineDistanceFactor) / teleportedModeSpeed. Insert a line like this for every such mode. -->
			<param name="teleportedModeSpeed" value="13.88888888888889" />
		</parameterset>

		<parameterset type="teleportedModeParameters" >
			<param name="beelineDistanceFactor" value="1.3" />
			<param name="mode" value="ride" />

			<!-- Free-speed factor for a teleported mode. Travel time = teleportedModeFreespeedFactor * <freespeed car travel time>. Insert a line like this for every such mode. Please do not set teleportedModeFreespeedFactor as well as teleportedModeSpeed for the same mode, but if you do, +teleportedModeFreespeedFactor wins over teleportedModeSpeed. -->
			<param name="teleportedModeFreespeedFactor" value="1.0" />

			<!-- Speed for a teleported mode. Travel time = (<beeline distance> * beelineDistanceFactor) / teleportedModeSpeed. Insert a line like this for every such mode. -->
			<param name="teleportedModeSpeed" value="null" />
		</parameterset>

		<parameterset type="teleportedModeParameters" >
			<param name="beelineDistanceFactor" value="1.3" />
			<param name="mode" value="pt" />

			<!-- Free-speed factor for a teleported mode. Travel time = teleportedModeFreespeedFactor * <freespeed car travel time>. Insert a line like this for every such mode. Please do not set teleportedModeFreespeedFactor as well as teleportedModeSpeed for the same mode, but if you do, +teleportedModeFreespeedFactor wins over teleportedModeSpeed. -->
			<param name="teleportedModeFreespeedFactor" value="2.0" />

			<!-- Speed for a teleported mode. Travel time = (<beeline distance> * beelineDistanceFactor) / teleportedModeSpeed. Insert a line like this for every such mode. -->
			<param name="teleportedModeSpeed" value="null" />
		</parameterset>
	</module>

<!-- ====================================================================== -->

	<module name="ptCounts" >

		<!-- factor by which to re-scale the simulated values.  necessary when simulation runs with something different from 100%.  needs to be adapted manually -->
		<param name="countsScaleFactor" value="1.0" />

		<!-- distance to distanceFilterCenterNode to include counting stations. The unit of distance is the Euclidean distance implied by the coordinate system -->
		<param name="distanceFilter" value="null" />

		<!-- node id for center node of distance filter -->
		<param name="distanceFilterCenterNode" value="null" />

		<!-- input file containing the alighting (getting off) counts for pt -->
		<param name="inputAlightCountsFile" value="null" />

		<!-- input file containing the boarding (getting on) counts for pt -->
		<param name="inputBoardCountsFile" value="null" />

		<!-- input file containing the occupancy counts for pt -->
		<param name="inputOccupancyCountsFile" value="null" />

		<!-- possible values: `html', `kml', `txt', `all' -->
		<param name="outputformat" value="null" />

		<!-- every how many iterations (starting with 0) counts comparisons are generated -->
		<param name="ptCountsInterval" value="10" />
	</module>

<!-- ====================================================================== -->

	<module name="qsim" >
		<param name="endTime" value="24:00:00" />
		<param name="flowCapacityFactor" value="1.0" />

		<!-- decides if waiting vehicles enter the network after or before the already driving vehicles were moved. Default: false -->
		<param name="insertingWaitingVehiclesBeforeDrivingVehicles" value="false" />

		<!-- If link dynamics is set as SeepageQ, set to false if all seep modes should perform seepage. Default is true (better option). -->
		<param name="isRestrictingSeepage" value="true" />

		<!-- If link dynamics is set as SeepageQ, set to true if seep mode do not consumes any space on the link. Default is false. -->
		<param name="isSeepModeStorageFree" value="false" />

		<!-- default: FIFO; options: FIFO PassingQ SeepageQ -->
		<param name="linkDynamics" value="PassingQ" />

		<!-- The (initial) width of the links of the network. Use positive floating point values. -->
		<param name="linkWidth" value="30.0" />

		<!-- [comma-separated list] Defines which modes are congested modes. Technically, these are the modes that the departure handler of the netsimengine handles.  Effective cell size, effective lane width, flow capacity factor, and storage capacity factor need to be set with diligence.  Need to be vehicular modes to make sense. -->
		<param name="mainMode" value="car" />

		<!-- Shortens a link in the visualization, i.e. its start and end point are moved into towards the center. Does not affect traffic flow.  -->
		<param name="nodeOffset" value="0.0" />

		<!-- Number of threads used for the QSim.  Note that this setting is independent from the "global" threads setting.  In contrast to earlier versions, the non-parallel special version is no longer there. -->
		<param name="numberOfThreads" value="1" />

		<!-- Boolean. `true': stuck vehicles are removed, aborting the plan; `false': stuck vehicles are forced into the next link. `false' is probably the better choice. -->
		<param name="removeStuckVehicles" value="false" />

		<!-- If link dynamics is set as SeepageQ, set a seep mode. Default is bike. -->
		<param name="seepMode" value="bike" />

		<!-- Options: nullmaxOfStarttimeAndEarliestActivityEnd onlyUseStarttime  -->
		<param name="simStarttimeInterpretation" value="maxOfStarttimeAndEarliestActivityEnd" />

		<!-- snapshotStyle. One of: equiDist queue withHoles  -->
		<param name="snapshotStyle" value="equiDist" />

		<param name="snapshotperiod" value="00:00:00" />
		<param name="startTime" value="00:00:00" />
		<param name="storageCapacityFactor" value="1.0" />

		<!-- time in seconds.  Time after which the frontmost vehicle on a link is called `stuck' if it does not move. -->
		<param name="stuckTime" value="10.0" />

		<param name="timeStepSize" value="00:00:01" />

		<!-- options: nullqueue withHoles  -->
		<param name="trafficDynamics" value="queue" />

		<!-- [DEPRECATED, usevehiclesSource instead]  If this is true, we do not expect (or use) vehicles from the vehicles database, but create vehicles on the fly with default properties. -->
		<param name="useDefaultVehicles" value="true" />

		<!-- Set this parameter to true if lanes should be used, false if not. -->
		<param name="useLanes" value="false" />

		<!-- If a route does not reference a vehicle, agents will use the vehicle with the same id as their own. -->
		<param name="usePersonIdForMissingVehicleId" value="true" />

		<!-- normally, the qsim accumulates fractional flows up to one flow unit.  This is impractical with  with smaller PCEs.  If this switch is set to true, cars can enter a link if the accumulated flow is >=0, and the accumulated flow can go into negative.  Will probably become the default eventually. -->
		<param name="usingFastCapacityUpdate" value="false" />

		<!-- if the qsim should use as many runners as there are threads (Christoph's dissertation version) or more of them, together with a thread pool (seems to be faster in some situations, but is not tested). -->
		<param name="usingThreadpool" value="true" />

		<!-- Defines what happens if an agent wants to depart, but the specified vehicle is not available. One of: nullteleport wait exception  -->
		<param name="vehicleBehavior" value="wait" />

		<!-- If vehicles should all be the same default vehicle, or come from the vehicles file, or something else.  Possible values:  defaultVehicle fromVehiclesData -->
		<param name="vehiclesSource" value="defaultVehicle" />
	</module>

<!-- ====================================================================== -->

	<module name="scenario" >
	</module>

<!-- ====================================================================== -->

	<module name="strategy" >

		<!-- the external executable will be called with a config file as argument.  This is the pathname to a possible skeleton config, to which additional information will be added.  Can be null. -->
		<param name="ExternalExeConfigTemplate" value="null" />

		<!-- time out value (in seconds) after which matsim will consider the external strategy as failed -->
		<param name="ExternalExeTimeOut" value="3600" />

		<!-- root directory for temporary files generated by the external executable. Provided as a service; I don't think this is used by MATSim. -->
		<param name="ExternalExeTmpFileRootDir" value="null" />

		<!-- fraction of iterations where innovative strategies are switched off.  Something link 0.8 should be good.  E.g. if you run from iteration 400 to iteration 500, innovation is switched off at iteration 480 -->
		<param name="fractionOfIterationsToDisableInnovation" value="Infinity" />

		<!-- maximum number of plans per agent.  ``0'' means ``infinity''.  Currently (2010), ``5'' is a good number -->
		<param name="maxAgentPlanMemorySize" value="5" />

		<!-- name of PlanSelector for plans removal.  Possible defaults: WorstPlanSelector SelectRandom SelectExpBetaForRemoval ChangeExpBetaForRemoval PathSizeLogitSelectorForRemoval . The current default, WorstPlanSelector is not a good choice from a discrete choice theoretical perspective. Alternatives, however, have not been systematically tested. kai, feb'12 -->
		<param name="planSelectorForRemoval" value="WorstPlanSelector" />

		<parameterset type="strategysettings" >

			<!-- iteration after which strategy will be disabled.  most useful for ``innovative'' strategies (new routes, new times, ...). Normally, better use fractionOfIterationsToDisableInnovation -->
			<param name="disableAfterIteration" value="-1" />

			<!-- path to external executable (if applicable) -->
			<param name="executionPath" value="null" />

			<!-- name of strategy.  Possible default names: KeepLastSelected BestScore ChangeExpBeta SelectExpBeta SelectRandom SelectPathSizeLogit  (selectors), ReRoute TimeAllocationMutator ChangeLegMode TimeAllocationMutator_ReRoute ChangeSingleLegMode ChangeSingleTripMode SubtourModeChoice ChangeTripMode TripSubtourModeChoice  (innovative strategies). -->
			<param name="strategyName" value="ChangeExpBeta" />

			<!-- subpopulation to which the strategy applies. "null" refers to the default population, that is, the set of persons for which no explicit subpopulation is defined (ie no subpopulation attribute) -->
			<param name="subpopulation" value="null" />

			<!-- weight of a strategy: for each agent, a strategy will be selected with a probability proportional to its weight -->
			<param name="weight" value="0.8" />
		</parameterset>

		<parameterset type="strategysettings" >

			<!-- iteration after which strategy will be disabled.  most useful for ``innovative'' strategies (new routes, new times, ...). Normally, better use fractionOfIterationsToDisableInnovation -->
			<param name="disableAfterIteration" value="-1" />

			<!-- path to external executable (if applicable) -->
			<param name="executionPath" value="null" />

			<!-- name of strategy.  Possible default names: KeepLastSelected BestScore ChangeExpBeta SelectExpBeta SelectRandom SelectPathSizeLogit  (selectors), ReRoute TimeAllocationMutator ChangeLegMode TimeAllocationMutator_ReRoute ChangeSingleLegMode ChangeSingleTripMode SubtourModeChoice ChangeTripMode TripSubtourModeChoice  (innovative strategies). -->
			<param name="strategyName" value="ReRoute" />

			<!-- subpopulation to which the strategy applies. "null" refers to the default population, that is, the set of persons for which no explicit subpopulation is defined (ie no subpopulation attribute) -->
			<param name="subpopulation" value="null" />

			<!-- weight of a strategy: for each agent, a strategy will be selected with a probability proportional to its weight -->
			<param name="weight" value="0.1" />
		</parameterset>

		<parameterset type="strategysettings" >

			<!-- iteration after which strategy will be disabled.  most useful for ``innovative'' strategies (new routes, new times, ...). Normally, better use fractionOfIterationsToDisableInnovation -->
			<param name="disableAfterIteration" value="-1" />

			<!-- path to external executable (if applicable) -->
			<param name="executionPath" value="null" />

			<!-- name of strategy.  Possible default names: KeepLastSelected BestScore ChangeExpBeta SelectExpBeta SelectRandom SelectPathSizeLogit  (selectors), ReRoute TimeAllocationMutator ChangeLegMode TimeAllocationMutator_ReRoute ChangeSingleLegMode ChangeSingleTripMode SubtourModeChoice ChangeTripMode TripSubtourModeChoice  (innovative strategies). -->
			<param name="strategyName" value="TimeAllocationMutator" />

			<!-- subpopulation to which the strategy applies. "null" refers to the default population, that is, the set of persons for which no explicit subpopulation is defined (ie no subpopulation attribute) -->
			<param name="subpopulation" value="null" />

			<!-- weight of a strategy: for each agent, a strategy will be selected with a probability proportional to its weight -->
			<param name="weight" value="0.1" />
		</parameterset>
	</module>

<!-- ====================================================================== -->

	<module name="subtourModeChoice" >

		<!-- Defines the chain-based modes, seperated by commas -->
		<param name="chainBasedModes" value="car,bike" />

		<!-- Defines whether car availability must be considered or not. A agent has no car only if it has no license, or never access to a car -->
		<param name="considerCarAvailability" value="false" />

		<!-- Defines all the modes available, including chain-based modes, seperated by commas -->
		<param name="modes" value="car,pt,bike,walk" />
	</module>

<!-- ====================================================================== -->

	<module name="transit" >

		<!-- Optional input file containing additional attributes for transit lines, stored as ObjectAttributes. -->
		<param name="transitLinesAttributesFile" value="null" />

		<!-- Comma-separated list of transportation modes that are handled as transit. Defaults to 'pt'. -->
		<param name="transitModes" value="pt" />

		<!-- Input file containing the transit schedule to be simulated. -->
		<param name="transitScheduleFile" value="./input/transitSchedule.xml" />

		<!-- Optional input file containing additional attributes for transit stop facilities, stored as ObjectAttributes. -->
		<param name="transitStopsAttributesFile" value="null" />

		<!-- Set this parameter to true if transit should be simulated, false if not. -->
		<param name="useTransit" value="true" />

		<!-- Input file containing the vehicles used by the departures in the transit schedule. -->
		<param name="vehiclesFile" value="./input/transitVehicles.xml" />
	</module>

<!-- ====================================================================== -->

	<module name="transitRouter" >

		<!-- additional time the router allocates when a line switch happens. Can be interpreted as a 'safety' time that agents need to safely transfer from one line to another -->
		<param name="additionalTransferTime" value="0.0" />

		<!-- step size to increase searchRadius if no stops are found -->
		<param name="extensionRadius" value="200.0" />

		<!-- maximum beeline distance between stops that agents could transfer to by walking -->
		<param name="maxBeelineWalkConnectionDistance" value="100.0" />

		<!-- the radius in which stop locations are searched, given a start or target coordinate -->
		<param name="searchRadius" value="500.0" />
	</module>

<!-- ====================================================================== -->

	<module name="travelTimeCalculator" >

		<!-- Transport modes that will be respected by the travel time collector. 'car' is default, which includes also bussed from the pt simulation module. Use this parameter in combination with 'filterModes' = true! -->
		<param name="analyzedModes" value="car" />

		<param name="calculateLinkToLinkTravelTimes" value="false" />
		<param name="calculateLinkTravelTimes" value="true" />

		<!-- If true, link travel times from legs performed on modes not included in the 'analyzedModes' parameter are ignored. -->
		<param name="filterModes" value="false" />

		<!-- How to deal with congested time bins that have no link entry events. `optimistic' assumes free speed (too optimistic); 'experimental_LastMile' is experimental and probably too pessimistic. -->
		<param name="travelTimeAggregator" value="optimistic" />

		<!-- The size of the time bin (in sec) into which the link travel times are aggregated for the router -->
		<param name="travelTimeBinSize" value="900" />

		<!-- possible values: nullTravelTimeCalculatorArray TravelTimeCalculatorHashMap  -->
		<param name="travelTimeCalculator" value="TravelTimeCalculatorArray" />

		<!-- How to deal with link entry times at different positions during the time bin. Currently supported: average, linearinterpolation -->
		<param name="travelTimeGetter" value="average" />
	</module>

<!-- ====================================================================== -->

	<module name="vehicles" >
		<param name="vehiclesFile" value="null" />
	</module>

<!-- ====================================================================== -->

	<module name="vspExperimental" >

		<!-- (do not use) Set this filename of MZ05 daily analysis -->
		<param name="inputMZ05File" value="" />

		<!-- (do not use except of you have to) There was a problem with pt interaction scoring.  Some people solved it by overwriting the parameters of the pt interaction activity type.  Doing this now throws an Exception.  If you still insist on doing this, set the following to true. -->
		<param name="isAbleToOverwritePtInteractionParams" value="false" />

		<param name="isGeneratingBoardingDeniedEvent" value="false" />

		<!-- if an approximation of the opportunity cost of time is included into the radius calculation for location choice.`true' will be faster, but it is an approximation.  Default is `true'; `false' is available for backwards compatibility. -->
		<param name="isUsingOpportunityCostOfTimeForLocationChoice" value="true" />

		<param name="logitScaleParamForPlansRemoval" value="1.0" />

		<!-- Options: | ignore | info | warn | abort | .  When violating VSP defaults, this results in nothing, logfile infos, logfile warnings, or aborts.  Members of VSP should use `abort' or talk to kai. -->
		<param name="vspDefaultsCheckingLevel" value="ignore" />

		<!-- if true then writes output_events in output directory.  default is `false'. Will only work when lastIteration is multiple of events writing interval -->
		<param name="writingOutputEvents" value="false" />
	</module>

<!-- ====================================================================== -->

</config>

2016-01-28 19:46:09,383  INFO ControlerUtils:62 Complete config dump done.
2016-01-28 19:46:09,383  INFO ControlerUtils:63 Checking consistency of config...
2016-01-28 19:46:09,384  INFO VspConfigConsistencyCheckerImpl:56 NOT running vsp config consistency check because vsp defaults checking level is set to IGNORE
[...]
2016-01-28 19:46:36,304  INFO Counter:57 [PopulationWriter] dumped person # 188594
2016-01-28 19:46:36,304  INFO PlansDumpingImpl:69 finished plans dump.
2016-01-28 19:46:36,304  INFO ControlerListenerManager:230 calling notifyBeforeMobsim on org.matsim.population.VspPlansCleaner
2016-01-28 19:46:36,551  INFO ControlerListenerManager:233 [it.0] all ControlerBeforeMobsimListeners called.
2016-01-28 19:46:37,147  INFO MobsimListenerManager:49 calling addQueueSimulationListener
2016-01-28 19:46:37,148  INFO MobsimListenerManager:53   assigned class org.matsim.core.mobsim.framework.listeners.MobsimListener to interface org.matsim.core.mobsim.qsim.messagequeueengine.MessageQueueEngine
2016-01-28 19:46:37,148  INFO MobsimListenerManager:53   assigned class org.matsim.core.mobsim.framework.listeners.MobsimListener to interface org.matsim.core.mobsim.framework.listeners.MobsimBeforeSimStepListener
2016-01-28 19:46:37,148  INFO MobsimListenerManager:53   assigned class org.matsim.core.mobsim.framework.listeners.MobsimListener to interface org.matsim.core.mobsim.framework.listeners.MobsimListener
2016-01-28 19:46:37,156  INFO MobsimListenerManager:49 calling addQueueSimulationListener
2016-01-28 19:46:37,156  INFO MobsimListenerManager:53   assigned class org.matsim.core.mobsim.framework.listeners.MobsimListener to interface org.matsim.core.mobsim.framework.listeners.MobsimBeforeCleanupListener
2016-01-28 19:46:37,156  INFO MobsimListenerManager:53   assigned class org.matsim.core.mobsim.framework.listeners.MobsimListener to interface org.matsim.vis.snapshotwriters.SnapshotWriterManager
2016-01-28 19:46:37,156  INFO MobsimListenerManager:53   assigned class org.matsim.core.mobsim.framework.listeners.MobsimListener to interface org.matsim.core.mobsim.framework.listeners.MobsimInitializedListener
2016-01-28 19:46:37,156  INFO MobsimListenerManager:53   assigned class org.matsim.core.mobsim.framework.listeners.MobsimListener to interface org.matsim.core.mobsim.framework.listeners.MobsimListener
2016-01-28 19:46:37,157  INFO MobsimListenerManager:53   assigned class org.matsim.core.mobsim.framework.listeners.MobsimListener to interface org.matsim.core.mobsim.framework.listeners.MobsimAfterSimStepListener
2016-01-28 19:46:37,166  INFO ReconstructingUmlaufBuilder:112 Generating UmlaufStuecke
2016-01-28 19:46:38,173  INFO QNetsimEngine:562 Assigned 2018 nodes and 2659 links to QSimEngineRunner #0
2016-01-28 19:46:38,414  INFO EventsManagerImpl:134  event # 1
2016-01-28 19:46:38,421  INFO EventsManagerImpl:134  event # 2
2016-01-28 19:46:38,422  INFO EventsManagerImpl:134  event # 4
2016-01-28 19:46:38,423  INFO EventsManagerImpl:134  event # 8
2016-01-28 19:46:38,423  INFO EventsManagerImpl:134  event # 16
2016-01-28 19:46:38,424  INFO QNetsimEngine:388 SIMULATION (QNetsimEngine) AT 04:29:00 : #links=0 #nodes=0
2016-01-28 19:46:38,425  INFO QSim:462 SIMULATION (NEW QSim) AT 04:29:00 : #Veh=188671 lost=0 simT=0.0s realT=1s; (s/r): 0.0
2016-01-28 19:46:38,425  INFO Gbl:52 used RAM: 1067852192B = 1042824kB = 1018MB  free: 618258016B = 589MB  total: 1686110208B = 1608MB
2016-01-28 19:46:38,433  INFO EventsManagerImpl:134  event # 32
2016-01-28 19:46:38,440  INFO EventsManagerImpl:134  event # 64
2016-01-28 19:46:38,452  INFO EventsManagerImpl:134  event # 128
2016-01-28 19:46:38,458  WARN CharyparNagelActivityScoring:212 encountering duration < zeroUtilityDuration; the logic for this was changed around mid-nov 2013.
2016-01-28 19:46:38,458  WARN CharyparNagelActivityScoring:213 your final score thus will be different from earlier runs; set usingOldScoringBelowZeroUtilityDuration to true if you absolutely need the old version.  See https://matsim.atlassian.net/browse/MATSIM-191.
2016-01-28 19:46:38,459  WARN CharyparNagelActivityScoring:215  This message given only once.
2016-01-28 19:46:38,474  INFO EventsManagerImpl:134  event # 256
2016-01-28 19:46:38,516  INFO EventsManagerImpl:134  event # 512
2016-01-28 19:46:38,547  INFO EventsManagerImpl:134  event # 1024
2016-01-28 19:46:38,617  INFO EventsManagerImpl:134  event # 2048
2016-01-28 19:46:38,673  INFO QNetsimEngine:388 SIMULATION (QNetsimEngine) AT 05:00:00 : #links=3 #nodes=0
2016-01-28 19:46:38,674  INFO QSim:462 SIMULATION (NEW QSim) AT 05:00:00 : #Veh=188654 lost=0 simT=1860.0s realT=1s; (s/r): 1860.0
2016-01-28 19:46:38,674  INFO Gbl:52 used RAM: 1070222080B = 1045138kB = 1020MB  free: 615888128B = 587MB  total: 1686110208B = 1608MB
2016-01-28 19:46:38,877  INFO EventsManagerImpl:134  event # 4096
2016-01-28 19:46:39,026  INFO EventsManagerImpl:134  event # 8192
2016-01-28 19:46:39,273  INFO EventsManagerImpl:134  event # 16384
2016-01-28 19:46:39,674  INFO EventsManagerImpl:134  event # 32768
2016-01-28 19:46:40,436  INFO EventsManagerImpl:134  event # 65536
2016-01-28 19:46:40,835  INFO QNetsimEngine:388 SIMULATION (QNetsimEngine) AT 06:00:00 : #links=21 #nodes=1
2016-01-28 19:46:40,835  INFO QSim:462 SIMULATION (NEW QSim) AT 06:00:00 : #Veh=186632 lost=0 simT=5460.0s realT=3s; (s/r): 1820.0
2016-01-28 19:46:40,836  INFO Gbl:52 used RAM: 1004934000B = 981380kB = 958MB  free: 681176208B = 649MB  total: 1686110208B = 1608MB
2016-01-28 19:46:42,328  INFO EventsManagerImpl:134  event # 131072
2016-01-28 19:46:44,680  INFO EventsManagerImpl:134  event # 262144
2016-01-28 19:46:45,229  INFO QNetsimEngine:388 SIMULATION (QNetsimEngine) AT 07:00:00 : #links=34 #nodes=3
2016-01-28 19:46:45,229  INFO QSim:462 SIMULATION (NEW QSim) AT 07:00:00 : #Veh=181128 lost=0 simT=9060.0s realT=8s; (s/r): 1132.5
2016-01-28 19:46:45,229  INFO Gbl:52 used RAM: 977348952B = 954442kB = 932MB  free: 708761256B = 675MB  total: 1686110208B = 1608MB
2016-01-28 19:46:47,825  INFO EventsManagerImpl:134  event # 524288
2016-01-28 19:46:48,091  INFO QNetsimEngine:388 SIMULATION (QNetsimEngine) AT 08:00:00 : #links=30 #nodes=3
2016-01-28 19:46:48,092  INFO QSim:462 SIMULATION (NEW QSim) AT 08:00:00 : #Veh=174846 lost=0 simT=12660.0s realT=11s; (s/r): 1150.909090909091
2016-01-28 19:46:48,092  INFO Gbl:52 used RAM: 1189231880B = 1161359kB = 1134MB  free: 496878328B = 473MB  total: 1686110208B = 1608MB
2016-01-28 19:46:50,645  INFO QNetsimEngine:388 SIMULATION (QNetsimEngine) AT 09:00:00 : #links=29 #nodes=2
2016-01-28 19:46:50,646  INFO QSim:462 SIMULATION (NEW QSim) AT 09:00:00 : #Veh=168481 lost=0 simT=16260.0s realT=13s; (s/r): 1250.7692307692307
2016-01-28 19:46:50,646  INFO Gbl:52 used RAM: 1151812376B = 1124816kB = 1098MB  free: 534297832B = 509MB  total: 1686110208B = 1608MB
2016-01-28 19:46:52,913  INFO QNetsimEngine:388 SIMULATION (QNetsimEngine) AT 10:00:00 : #links=26 #nodes=3
2016-01-28 19:46:52,913  INFO QSim:462 SIMULATION (NEW QSim) AT 10:00:00 : #Veh=162575 lost=0 simT=19860.0s realT=15s; (s/r): 1324.0
2016-01-28 19:46:52,914  INFO Gbl:52 used RAM: 1094859640B = 1069198kB = 1044MB  free: 591250568B = 563MB  total: 1686110208B = 1608MB
2016-01-28 19:46:54,205  INFO EventsManagerImpl:134  event # 1048576
2016-01-28 19:46:55,321  INFO QNetsimEngine:388 SIMULATION (QNetsimEngine) AT 11:00:00 : #links=20 #nodes=3
2016-01-28 19:46:55,321  INFO QSim:462 SIMULATION (NEW QSim) AT 11:00:00 : #Veh=156643 lost=0 simT=23460.0s realT=18s; (s/r): 1303.3333333333333
2016-01-28 19:46:55,322  INFO Gbl:52 used RAM: 1045343976B = 1020843kB = 996MB  free: 640766232B = 611MB  total: 1686110208B = 1608MB
2016-01-28 19:46:57,513  INFO QNetsimEngine:388 SIMULATION (QNetsimEngine) AT 12:00:00 : #links=23 #nodes=3
2016-01-28 19:46:57,513  INFO QSim:462 SIMULATION (NEW QSim) AT 12:00:00 : #Veh=151047 lost=0 simT=27060.0s realT=20s; (s/r): 1353.0
2016-01-28 19:46:57,514  INFO Gbl:52 used RAM: 1220795200B = 1192182kB = 1164MB  free: 465315008B = 443MB  total: 1686110208B = 1608MB
2016-01-28 19:47:00,128  INFO QNetsimEngine:388 SIMULATION (QNetsimEngine) AT 13:00:00 : #links=25 #nodes=0
2016-01-28 19:47:00,128  INFO QSim:462 SIMULATION (NEW QSim) AT 13:00:00 : #Veh=144643 lost=0 simT=30660.0s realT=23s; (s/r): 1333.0434782608695
2016-01-28 19:47:00,128  INFO Gbl:52 used RAM: 1211606592B = 1183209kB = 1155MB  free: 474503616B = 452MB  total: 1686110208B = 1608MB
2016-01-28 19:47:02,566  INFO QNetsimEngine:388 SIMULATION (QNetsimEngine) AT 14:00:00 : #links=21 #nodes=2
2016-01-28 19:47:02,566  INFO QSim:462 SIMULATION (NEW QSim) AT 14:00:00 : #Veh=138700 lost=0 simT=34260.0s realT=25s; (s/r): 1370.4
2016-01-28 19:47:02,566  INFO Gbl:52 used RAM: 1179436392B = 1151793kB = 1124MB  free: 506673816B = 483MB  total: 1686110208B = 1608MB
2016-01-28 19:47:05,090  INFO QNetsimEngine:388 SIMULATION (QNetsimEngine) AT 15:00:00 : #links=24 #nodes=0
2016-01-28 19:47:05,090  INFO QSim:462 SIMULATION (NEW QSim) AT 15:00:00 : #Veh=132278 lost=0 simT=37860.0s realT=28s; (s/r): 1352.142857142857
2016-01-28 19:47:05,091  INFO Gbl:52 used RAM: 1177527280B = 1149928kB = 1122MB  free: 508582928B = 485MB  total: 1686110208B = 1608MB
2016-01-28 19:47:07,639  INFO QNetsimEngine:388 SIMULATION (QNetsimEngine) AT 16:00:00 : #links=25 #nodes=4
2016-01-28 19:47:07,640  INFO QSim:462 SIMULATION (NEW QSim) AT 16:00:00 : #Veh=125316 lost=0 simT=41460.0s realT=30s; (s/r): 1382.0
2016-01-28 19:47:07,640  INFO Gbl:52 used RAM: 1186378944B = 1158573kB = 1131MB  free: 499731264B = 476MB  total: 1686110208B = 1608MB
2016-01-28 19:47:08,087  INFO EventsManagerImpl:134  event # 2097152
2016-01-28 19:47:10,794  INFO QNetsimEngine:388 SIMULATION (QNetsimEngine) AT 17:00:00 : #links=29 #nodes=4
2016-01-28 19:47:10,794  INFO QSim:462 SIMULATION (NEW QSim) AT 17:00:00 : #Veh=115935 lost=0 simT=45060.0s realT=33s; (s/r): 1365.4545454545455
2016-01-28 19:47:10,795  INFO Gbl:52 used RAM: 1270498336B = 1240721kB = 1211MB  free: 415611872B = 396MB  total: 1686110208B = 1608MB
2016-01-28 19:47:17,753  INFO QNetsimEngine:388 SIMULATION (QNetsimEngine) AT 18:00:00 : #links=32 #nodes=4
2016-01-28 19:47:17,753  INFO QSim:462 SIMULATION (NEW QSim) AT 18:00:00 : #Veh=104578 lost=0 simT=48660.0s realT=40s; (s/r): 1216.5
2016-01-28 19:47:17,753  INFO Gbl:52 used RAM: 1089591104B = 1064053kB = 1039MB  free: 678832320B = 647MB  total: 1768423424B = 1686MB
2016-01-28 19:47:22,712  INFO QNetsimEngine:388 SIMULATION (QNetsimEngine) AT 19:00:00 : #links=32 #nodes=2
2016-01-28 19:47:22,712  INFO QSim:462 SIMULATION (NEW QSim) AT 19:00:00 : #Veh=91364 lost=0 simT=52260.0s realT=45s; (s/r): 1161.3333333333333
2016-01-28 19:47:22,713  INFO Gbl:52 used RAM: 1162333840B = 1135091kB = 1108MB  free: 606089584B = 578MB  total: 1768423424B = 1686MB
2016-01-28 19:47:26,035  INFO QNetsimEngine:388 SIMULATION (QNetsimEngine) AT 20:00:00 : #links=29 #nodes=5
2016-01-28 19:47:26,035  INFO QSim:462 SIMULATION (NEW QSim) AT 20:00:00 : #Veh=82683 lost=0 simT=55860.0s realT=49s; (s/r): 1140.0
2016-01-28 19:47:26,035  INFO Gbl:52 used RAM: 1086230168B = 1060771kB = 1035MB  free: 682193256B = 650MB  total: 1768423424B = 1686MB
2016-01-28 19:47:28,125  INFO QNetsimEngine:388 SIMULATION (QNetsimEngine) AT 21:00:00 : #links=26 #nodes=0
2016-01-28 19:47:28,125  INFO QSim:462 SIMULATION (NEW QSim) AT 21:00:00 : #Veh=75378 lost=0 simT=59460.0s realT=51s; (s/r): 1165.8823529411766
2016-01-28 19:47:28,126  INFO Gbl:52 used RAM: 1116535184B = 1090366kB = 1064MB  free: 428541552B = 408MB  total: 1545076736B = 1473MB
2016-01-28 19:47:30,292  INFO QNetsimEngine:388 SIMULATION (QNetsimEngine) AT 22:00:00 : #links=19 #nodes=4
2016-01-28 19:47:30,292  INFO QSim:462 SIMULATION (NEW QSim) AT 22:00:00 : #Veh=67418 lost=0 simT=63060.0s realT=53s; (s/r): 1189.811320754717
2016-01-28 19:47:30,292  INFO Gbl:52 used RAM: 1142538512B = 1115760kB = 1089MB  free: 615399152B = 586MB  total: 1757937664B = 1676MB
2016-01-28 19:47:31,541  INFO QNetsimEngine:388 SIMULATION (QNetsimEngine) AT 23:00:00 : #links=12 #nodes=0
2016-01-28 19:47:31,541  INFO QSim:462 SIMULATION (NEW QSim) AT 23:00:00 : #Veh=62636 lost=0 simT=66660.0s realT=54s; (s/r): 1234.4444444444443
2016-01-28 19:47:31,542  INFO Gbl:52 used RAM: 1064281032B = 1039336kB = 1014MB  free: 510155832B = 486MB  total: 1574436864B = 1501MB
2016-01-28 19:47:31,922  INFO QNetsimEngine:388 SIMULATION (QNetsimEngine) AT 24:00:00 : #links=0 #nodes=0
2016-01-28 19:47:31,922  INFO QSim:462 SIMULATION (NEW QSim) AT 24:00:00 : #Veh=61250 lost=0 simT=70260.0s realT=54s; (s/r): 1301.111111111111
2016-01-28 19:47:31,922  INFO Gbl:52 used RAM: 1090741832B = 1065177kB = 1040MB  free: 483695032B = 461MB  total: 1574436864B = 1501MB
2016-01-28 19:47:32,060  INFO AbstractController$6:225 ### ITERATION 0 fires after mobsim event
2016-01-28 19:47:32,061  INFO ControlerListenerManager:244 calling notifyAfterMobsim on org.matsim.core.controler.corelisteners.EventsHandlingImpl
2016-01-28 19:47:32,378  INFO ControlerListenerManager:249 calling notifyAfterMobsim on org.matsim.analysis.LegTimesControlerListener
2016-01-28 19:47:32,379  INFO Gbl:185 Thread performance: Thread=class org.matsim.core.events.SimStepParallelEventsManagerImpl$ProcessEventsRunnable0  cpu-time=34.765625sec
2016-01-28 19:47:32,380  INFO LegTimesControlerListener:50 [0] average trip (probably: leg) duration is: 1050 seconds = 00:17:30
2016-01-28 19:47:32,380  INFO ControlerListenerManager:252 [it.0] all ControlerAfterMobsimListeners called.
2016-01-28 19:47:32,385  INFO AbstractController$4:162 ### ITERATION 0 fires scoring event
2016-01-28 19:47:32,385  INFO ControlerListenerManager:184 calling notifyScoring on org.matsim.core.controler.corelisteners.PlansScoringImpl
2016-01-28 19:47:32,815  INFO EventsToScore:203 it: 0 msaStart: null
2016-01-28 19:47:33,020  INFO ControlerListenerManager:195 [it.0] all ControlerScoringListeners called.
2016-01-28 19:47:33,025  INFO AbstractController$5:170 ### ITERATION 0 fires iteration end event
2016-01-28 19:47:33,026  INFO ControlerListenerManager:161 calling notifyIterationEnds on org.matsim.core.controler.corelisteners.EventsHandlingImpl
2016-01-28 19:47:33,027  INFO EventsManagerImpl:161 removing Event-Handler: org.matsim.core.events.algorithms.EventWriterXML
2016-01-28 19:47:33,028  INFO EventsManagerImpl:161 removing Event-Handler: org.matsim.core.events.algorithms.EventWriterXML
2016-01-28 19:47:33,028  INFO ControlerListenerManager:161 calling notifyIterationEnds on org.matsim.core.controler.corelisteners.PlansScoringImpl
2016-01-28 19:47:33,028  INFO ControlerListenerManager:168 calling notifyIterationEnds on org.matsim.counts.CountsControlerListener
2016-01-28 19:47:33,028  INFO ControlerListenerManager:168 calling notifyIterationEnds on org.matsim.analysis.ScoreStatsControlerListener
2016-01-28 19:47:33,142  INFO ScoreStatsControlerListener:185 -- avg. score of the executed plan of each agent: 3.0184401284325606
2016-01-28 19:47:33,142  INFO ScoreStatsControlerListener:186 -- avg. score of the worst plan of each agent: 3.0184401284325606
2016-01-28 19:47:33,142  INFO ScoreStatsControlerListener:187 -- avg. of the avg. plan score per agent: 3.0184401284325606
2016-01-28 19:47:33,142  INFO ScoreStatsControlerListener:188 -- avg. score of the best plan of each agent: 3.0184401284325606
2016-01-28 19:47:33,143  INFO ControlerListenerManager:168 calling notifyIterationEnds on org.matsim.analysis.TravelDistanceStatsControlerListener
2016-01-28 19:47:33,176  INFO TravelDistanceStats:128 [TravelDistanceStats] using 8 thread(s).
2016-01-28 19:47:33,261  INFO TravelDistanceStats:141 [TravelDistanceStats] all threads finished.
2016-01-28 19:47:33,262  INFO TravelDistanceStats:161 -- average of the average leg distance per plan (executed plans only): 1778.2779907570919
2016-01-28 19:47:33,262  INFO TravelDistanceStats:162 (TravelDistanceStats takes an average over all legs where the simulation reports travelled distances. These are car legs, pt legs,
2016-01-28 19:47:33,262  INFO TravelDistanceStats:163 (and teleported legs whose route contains a distance.)
2016-01-28 19:47:33,262  INFO ControlerListenerManager:168 calling notifyIterationEnds on org.matsim.analysis.LegHistogramListener
2016-01-28 19:47:33,274  INFO LegHistogramListener:72 number of legs:	629196	100%
2016-01-28 19:47:33,275  INFO LegHistogramListener:79 number of pt legs:	228308	36.28567250904329%
2016-01-28 19:47:33,275  INFO LegHistogramListener:79 number of transit_walk legs:	400888	63.71432749095671%
2016-01-28 19:47:35,353  INFO ControlerListenerManager:168 calling notifyIterationEnds on org.matsim.analysis.LinkStatsControlerListener
2016-01-28 19:47:35,814  INFO ControlerListenerManager:172 [it.0] all ControlerIterationEndsListeners called.
2016-01-28 19:47:36,393  INFO AbstractController:180 ### ITERATION 0 ENDS
2016-01-28 19:47:36,393  INFO AbstractController:181 ###################################################
2016-01-28 19:47:36,393  INFO MatsimRuntimeModifications:108 S H U T D O W N   ---   start shutdown.
2016-01-28 19:47:36,393  INFO ControlerListenerManager:122 calling notifyShutdown on org.matsim.core.controler.corelisteners.EventsHandlingImpl
2016-01-28 19:47:36,393  INFO ControlerListenerManager:122 calling notifyShutdown on org.matsim.core.controler.corelisteners.DumpDataAtEndImpl
2016-01-28 19:47:36,526  INFO Counter:51 [PopulationWriter] dumped person # 1
2016-01-28 19:47:36,526  INFO Counter:51 [PopulationWriter] dumped person # 2
2016-01-28 19:47:36,527  INFO Counter:51 [PopulationWriter] dumped person # 4
2016-01-28 19:47:36,527  INFO Counter:51 [PopulationWriter] dumped person # 8
2016-01-28 19:47:36,528  INFO Counter:51 [PopulationWriter] dumped person # 16
2016-01-28 19:47:36,529  INFO Counter:51 [PopulationWriter] dumped person # 32
2016-01-28 19:47:36,531  INFO Counter:51 [PopulationWriter] dumped person # 64
2016-01-28 19:47:36,536  INFO Counter:51 [PopulationWriter] dumped person # 128
2016-01-28 19:47:36,545  INFO Counter:51 [PopulationWriter] dumped person # 256
2016-01-28 19:47:36,565  INFO Counter:51 [PopulationWriter] dumped person # 512
2016-01-28 19:47:36,602  INFO Counter:51 [PopulationWriter] dumped person # 1024
2016-01-28 19:47:36,676  INFO Counter:51 [PopulationWriter] dumped person # 2048
2016-01-28 19:47:36,824  INFO Counter:51 [PopulationWriter] dumped person # 4096
2016-01-28 19:47:37,133  INFO Counter:51 [PopulationWriter] dumped person # 8192
2016-01-28 19:47:37,727  INFO Counter:51 [PopulationWriter] dumped person # 16384
2016-01-28 19:47:38,921  INFO Counter:51 [PopulationWriter] dumped person # 32768
2016-01-28 19:47:41,273  INFO Counter:51 [PopulationWriter] dumped person # 65536
2016-01-28 19:47:46,044  INFO Counter:51 [PopulationWriter] dumped person # 131072
2016-01-28 19:47:49,447  INFO PopulationWriter:95 Population written to: ./output/output_plans.xml.gz
2016-01-28 19:47:49,448  INFO Counter:57 [PopulationWriter] dumped person # 188594
2016-01-28 19:47:49,465  INFO NetworkWriter:46 Writing network to file: ./output/output_network.xml.gz...
2016-01-28 19:47:49,531  INFO NetworkWriter:49 done.
2016-01-28 19:47:49,566  INFO VehicleWriterV1:55 Vehicles written to: ./output/output_transitVehicles.xml.gz
2016-01-28 19:47:49,566  INFO VehicleWriterV1:55 Vehicles written to: ./output/output_vehicles.xml.gz
2016-01-28 19:47:49,570  INFO Counter:57 [HouseholdsWriter] dumped household # 0
2016-01-28 19:47:49,575  INFO LaneDefinitionsWriter20:62 Using LaneDefinitionWriter20...
2016-01-28 19:47:49,575  INFO LaneDefinitionsWriter20:71 writing to file: ./output/output_lanes.xml.gz
2016-01-28 19:47:50,049  INFO ControlerListenerManager:127 calling notifyShutdown on org.matsim.analysis.ScoreStatsControlerListener
2016-01-28 19:47:50,049  INFO ControlerListenerManager:127 calling notifyShutdown on org.matsim.analysis.TravelDistanceStatsControlerListener
2016-01-28 19:47:50,049  INFO ControlerListenerManager:130 all ControlerShutdownListeners called.
2016-01-28 19:47:50,050  INFO MatsimRuntimeModifications:131 S H U T D O W N   ---   shutdown completed.
2016-01-28 19:47:50,050  INFO OutputDirectoryLogging:168 closing the logfile, i.e. messages sent to the logger after this message are not written to the logfile.
