2015-08-25 14:05:40,109  INFO Gbl:57 JVM: 1.8.0_20; Oracle Corporation; mixed mode; 64-bit
2015-08-25 14:05:40,109  INFO Gbl:61 OS: Windows 7; 6.1; amd64
2015-08-25 14:05:40,110  INFO Gbl:64 CPU cores: 8
2015-08-25 14:05:40,111  INFO Gbl:65 max. Memory: 1812.0MB (1900019712B)
2015-08-25 14:05:40,112  INFO Gbl:103 MATSim-Build: r${buildNumber} (${timestamp})
2015-08-25 14:05:40,113  INFO AbstractController:71 Used Controler-Class: org.matsim.core.controler.Controler
2015-08-25 14:05:40,627  INFO SnapshotWriterRegistrar:41 OTFVis snapshots will not be supported, as OTFVis is not part of the classpath.
2015-08-25 14:05:40,810  INFO Controler:250 setting up transit simulation
2015-08-25 14:05:40,846  INFO ScenarioLoaderImpl:141 loading scenario from base directory: C:\MATSim\workspace\dta-brt\
2015-08-25 14:05:40,847  INFO ScenarioLoaderImpl:175 loading network from ./input/specialNetwork.xml
2015-08-25 14:05:40,887  INFO MatsimXmlParser:149 starting to parse xml from file ./input/specialNetwork.xml ...
2015-08-25 14:05:40,893  INFO MatsimNetworkReader:83 using network_v1-reader.
2015-08-25 14:05:40,894  INFO MatsimXmlParser:255 Trying to load http://www.matsim.org/files/dtd/network_v1.dtd. In some cases (e.g. network interface up but no connection), this may take a bit.
2015-08-25 14:05:41,308  INFO NetworkImpl:128  node # 1
2015-08-25 14:05:41,309  INFO NetworkImpl:128  node # 2
2015-08-25 14:05:41,309  INFO NetworkImpl:128  node # 4
2015-08-25 14:05:41,309  INFO NetworkImpl:128  node # 8
2015-08-25 14:05:41,310  INFO NetworkImpl:128  node # 16
2015-08-25 14:05:41,312  INFO NetworkImpl:128  node # 32
2015-08-25 14:05:41,315  INFO NetworkImpl:128  node # 64
2015-08-25 14:05:41,319  INFO NetworkImpl:128  node # 128
2015-08-25 14:05:41,327  INFO NetworkImpl:128  node # 256
2015-08-25 14:05:41,337  INFO NetworkImpl:128  node # 512
2015-08-25 14:05:41,361  INFO NetworkImpl:128  node # 1024
2015-08-25 14:05:41,383  INFO NetworkImpl:124  link # 1
2015-08-25 14:05:41,384  INFO NetworkImpl:124  link # 2
2015-08-25 14:05:41,384  INFO NetworkImpl:124  link # 4
2015-08-25 14:05:41,385  INFO NetworkImpl:124  link # 8
2015-08-25 14:05:41,386  INFO NetworkImpl:124  link # 16
2015-08-25 14:05:41,387  INFO NetworkImpl:124  link # 32
2015-08-25 14:05:41,389  INFO NetworkImpl:124  link # 64
2015-08-25 14:05:41,392  INFO NetworkImpl:124  link # 128
2015-08-25 14:05:41,398  INFO NetworkImpl:124  link # 256
2015-08-25 14:05:41,402  WARN LinkImpl:112 [from=to=[id=56][coord=[x=1063203.2873370168][y=877613.519849463]][type=null][nof_inlinks=1][nof_outlinks=1] link is a loop]
2015-08-25 14:05:41,403  WARN LinkImpl:114  Future occurences of this logging statement are suppressed.
2015-08-25 14:05:41,403  WARN NodeImpl:98 [id=56][coord=[x=1063203.2873370168][y=877613.519849463]][type=null][nof_inlinks=1][nof_outlinks=2][inlink_id=56-56 is now in- and out-link]
2015-08-25 14:05:41,404  WARN NodeImpl:99  This message given only once.
2015-08-25 14:05:41,411  INFO NetworkImpl:124  link # 512
2015-08-25 14:05:41,432  INFO NetworkImpl:124  link # 1024
2015-08-25 14:05:41,458  INFO NetworkImpl:124  link # 2048
2015-08-25 14:05:41,471  INFO ScenarioLoaderImpl:208 no facilities file set in config, therefore not loading any facilities.  This is not a problem except if you are using facilities
2015-08-25 14:05:41,471  INFO ScenarioLoaderImpl:216 no facility-attributes file set in config, not loading any facility attributes
2015-08-25 14:05:41,471  INFO ScenarioLoaderImpl:229 loading population from ./input/plans_sitm_cali_25.08.2015.xml
2015-08-25 14:05:41,513  INFO MatsimXmlParser:149 starting to parse xml from file ./input/plans_sitm_cali_25.08.2015.xml ...
2015-08-25 14:05:41,531  INFO MatsimPopulationReader:86 using population_v5-reader.
2015-08-25 14:05:41,532  INFO MatsimXmlParser:255 Trying to load http://www.matsim.org/files/dtd/population_v5.dtd. In some cases (e.g. network interface up but no connection), this may take a bit.
2015-08-25 14:05:42,285  INFO PopulationImpl:173  person # 1
2015-08-25 14:05:42,285  INFO PopulationImpl:173  person # 2
2015-08-25 14:05:42,285  INFO PopulationImpl:173  person # 4
2015-08-25 14:05:42,286  INFO PopulationImpl:173  person # 8
2015-08-25 14:05:42,287  INFO PopulationImpl:173  person # 16
2015-08-25 14:05:42,289  INFO PopulationImpl:173  person # 32
2015-08-25 14:05:42,292  INFO PopulationImpl:173  person # 64
2015-08-25 14:05:42,299  INFO PopulationImpl:173  person # 128
2015-08-25 14:05:42,312  INFO PopulationImpl:173  person # 256
2015-08-25 14:05:42,335  INFO PopulationImpl:173  person # 512
2015-08-25 14:05:42,371  INFO PopulationImpl:173  person # 1024
2015-08-25 14:05:42,441  INFO PopulationImpl:173  person # 2048
2015-08-25 14:05:42,557  INFO PopulationImpl:173  person # 4096
2015-08-25 14:05:42,768  INFO PopulationImpl:173  person # 8192
2015-08-25 14:05:43,436  INFO PopulationImpl:173  person # 16384
2015-08-25 14:05:44,578  INFO PopulationImpl:173  person # 32768
2015-08-25 14:05:46,192  INFO PopulationImpl:173  person # 59487
2015-08-25 14:05:46,192  INFO ScenarioLoaderImpl:245 no person-attributes file set in config, not loading any person attributes
2015-08-25 14:05:46,258 DEBUG MatsimFileTypeGuesser:147 Detected public id: null
2015-08-25 14:05:46,258 DEBUG MatsimFileTypeGuesser:148 Detected system Id: http://www.matsim.org/files/dtd/transitSchedule_v1.dtd
2015-08-25 14:05:46,273  INFO MatsimXmlParser:149 starting to parse xml from file ./input/transitSchedule.xml ...
2015-08-25 14:05:46,275  INFO MatsimXmlParser:255 Trying to load http://www.matsim.org/files/dtd/transitSchedule_v1.dtd. In some cases (e.g. network interface up but no connection), this may take a bit.
2015-08-25 14:05:46,623  INFO ScenarioLoaderImpl:285 loading vehicles from ./input/transitVehicles.xml
2015-08-25 14:05:46,639  INFO MatsimXmlParser:149 starting to parse xml from file ./input/transitVehicles.xml ...
2015-08-25 14:05:46,649  INFO MatsimXmlParser:255 Trying to load http://www.matsim.org/files/dtd/vehicleDefinitions_v1.0.xsd. In some cases (e.g. network interface up but no connection), this may take a bit.
2015-08-25 14:05:46,853  INFO MatsimXmlParser:255 Trying to load http://www.matsim.org/files/dtd/matsimCommon.xsd. In some cases (e.g. network interface up but no connection), this may take a bit.
2015-08-25 14:05:47,033  INFO MatsimXmlParser:255 Trying to load http://www.matsim.org/files/dtd/vehicleDefinitionsEnumTypes.xsd. In some cases (e.g. network interface up but no connection), this may take a bit.
2015-08-25 14:05:47,237  INFO Counter:51  vehicles # 1
2015-08-25 14:05:47,237  INFO Counter:51  vehicles # 2
2015-08-25 14:05:47,238  INFO Counter:51  vehicles # 4
2015-08-25 14:05:47,238  INFO Counter:51  vehicles # 8
2015-08-25 14:05:47,238  INFO Counter:51  vehicles # 16
2015-08-25 14:05:47,239  INFO Counter:51  vehicles # 32
2015-08-25 14:05:47,240  INFO Counter:51  vehicles # 64
2015-08-25 14:05:47,954  INFO StrategyManagerConfigLoader:65 global innovation switch off after iteration: 2147483647
2015-08-25 14:05:48,001  INFO GenericStrategyManager:296 added change request:  iteration=-2147483648 newWeight=0.0 strategy=RandomPlanSelector_ReRoute
2015-08-25 14:05:48,014  INFO GenericStrategyManager:328 setting PlanSelectorForRemoval to class org.matsim.core.replanning.selectors.WorstPlanForRemovalSelector
2015-08-25 14:05:48,072  INFO EventsManagerImpl:144 adding Event-Handler: org.matsim.core.trafficmonitoring.TravelTimeCalculator
2015-08-25 14:05:48,072  INFO EventsManagerImpl:148   org.matsim.api.core.v01.events.handler.LinkEnterEventHandler
2015-08-25 14:05:48,073  INFO EventsManagerImpl:207     > org.matsim.api.core.v01.events.LinkEnterEvent
2015-08-25 14:05:48,074  INFO EventsManagerImpl:148   org.matsim.api.core.v01.events.handler.LinkLeaveEventHandler
2015-08-25 14:05:48,075  INFO EventsManagerImpl:207     > org.matsim.api.core.v01.events.LinkLeaveEvent
2015-08-25 14:05:48,075  INFO EventsManagerImpl:148   org.matsim.api.core.v01.events.handler.PersonDepartureEventHandler
2015-08-25 14:05:48,076  INFO EventsManagerImpl:207     > org.matsim.api.core.v01.events.PersonDepartureEvent
2015-08-25 14:05:48,076  INFO EventsManagerImpl:148   org.matsim.api.core.v01.events.handler.PersonArrivalEventHandler
2015-08-25 14:05:48,076  INFO EventsManagerImpl:207     > org.matsim.api.core.v01.events.PersonArrivalEvent
2015-08-25 14:05:48,076  INFO EventsManagerImpl:148   org.matsim.core.api.experimental.events.handler.VehicleArrivesAtFacilityEventHandler
2015-08-25 14:05:48,084  INFO EventsManagerImpl:207     > org.matsim.core.api.experimental.events.VehicleArrivesAtFacilityEvent
2015-08-25 14:05:48,084  INFO EventsManagerImpl:148   org.matsim.api.core.v01.events.handler.TransitDriverStartsEventHandler
2015-08-25 14:05:48,085  INFO EventsManagerImpl:207     > org.matsim.api.core.v01.events.TransitDriverStartsEvent
2015-08-25 14:05:48,085  INFO EventsManagerImpl:148   org.matsim.api.core.v01.events.handler.PersonStuckEventHandler
2015-08-25 14:05:48,085  INFO EventsManagerImpl:207     > org.matsim.api.core.v01.events.PersonStuckEvent
2015-08-25 14:05:48,085  INFO EventsManagerImpl:156 
2015-08-25 14:05:48,085  INFO EventsManagerImpl:144 adding Event-Handler: org.matsim.core.trafficmonitoring.TravelTimeCalculator
2015-08-25 14:05:48,086  INFO EventsManagerImpl:148   org.matsim.api.core.v01.events.handler.LinkEnterEventHandler
2015-08-25 14:05:48,086  INFO EventsManagerImpl:207     > org.matsim.api.core.v01.events.LinkEnterEvent
2015-08-25 14:05:48,086  INFO EventsManagerImpl:148   org.matsim.api.core.v01.events.handler.LinkLeaveEventHandler
2015-08-25 14:05:48,086  INFO EventsManagerImpl:207     > org.matsim.api.core.v01.events.LinkLeaveEvent
2015-08-25 14:05:48,086  INFO EventsManagerImpl:148   org.matsim.api.core.v01.events.handler.PersonDepartureEventHandler
2015-08-25 14:05:48,086  INFO EventsManagerImpl:207     > org.matsim.api.core.v01.events.PersonDepartureEvent
2015-08-25 14:05:48,086  INFO EventsManagerImpl:148   org.matsim.api.core.v01.events.handler.PersonArrivalEventHandler
2015-08-25 14:05:48,086  INFO EventsManagerImpl:207     > org.matsim.api.core.v01.events.PersonArrivalEvent
2015-08-25 14:05:48,086  INFO EventsManagerImpl:148   org.matsim.core.api.experimental.events.handler.VehicleArrivesAtFacilityEventHandler
2015-08-25 14:05:48,087  INFO EventsManagerImpl:207     > org.matsim.core.api.experimental.events.VehicleArrivesAtFacilityEvent
2015-08-25 14:05:48,087  INFO EventsManagerImpl:148   org.matsim.api.core.v01.events.handler.TransitDriverStartsEventHandler
2015-08-25 14:05:48,087  INFO EventsManagerImpl:207     > org.matsim.api.core.v01.events.TransitDriverStartsEvent
2015-08-25 14:05:48,087  INFO EventsManagerImpl:148   org.matsim.api.core.v01.events.handler.PersonStuckEventHandler
2015-08-25 14:05:48,087  INFO EventsManagerImpl:207     > org.matsim.api.core.v01.events.PersonStuckEvent
2015-08-25 14:05:48,087  INFO EventsManagerImpl:156 
2015-08-25 14:05:48,087  INFO EventsManagerImpl:144 adding Event-Handler: org.matsim.analysis.VolumesAnalyzer
2015-08-25 14:05:48,087  INFO EventsManagerImpl:148   org.matsim.api.core.v01.events.handler.LinkLeaveEventHandler
2015-08-25 14:05:48,087  INFO EventsManagerImpl:207     > org.matsim.api.core.v01.events.LinkLeaveEvent
2015-08-25 14:05:48,087  INFO EventsManagerImpl:148   org.matsim.api.core.v01.events.handler.PersonDepartureEventHandler
2015-08-25 14:05:48,087  INFO EventsManagerImpl:207     > org.matsim.api.core.v01.events.PersonDepartureEvent
2015-08-25 14:05:48,087  INFO EventsManagerImpl:156 
2015-08-25 14:05:48,088  INFO EventsManagerImpl:144 adding Event-Handler: org.matsim.analysis.VolumesAnalyzer
2015-08-25 14:05:48,088  INFO EventsManagerImpl:148   org.matsim.api.core.v01.events.handler.LinkLeaveEventHandler
2015-08-25 14:05:48,088  INFO EventsManagerImpl:207     > org.matsim.api.core.v01.events.LinkLeaveEvent
2015-08-25 14:05:48,088  INFO EventsManagerImpl:148   org.matsim.api.core.v01.events.handler.PersonDepartureEventHandler
2015-08-25 14:05:48,088  INFO EventsManagerImpl:207     > org.matsim.api.core.v01.events.PersonDepartureEvent
2015-08-25 14:05:48,088  INFO EventsManagerImpl:156 
2015-08-25 14:05:48,088  INFO EventsManagerImpl:144 adding Event-Handler: org.matsim.analysis.LegHistogram
2015-08-25 14:05:48,088  INFO EventsManagerImpl:148   org.matsim.api.core.v01.events.handler.PersonDepartureEventHandler
2015-08-25 14:05:48,088  INFO EventsManagerImpl:207     > org.matsim.api.core.v01.events.PersonDepartureEvent
2015-08-25 14:05:48,088  INFO EventsManagerImpl:148   org.matsim.api.core.v01.events.handler.PersonArrivalEventHandler
2015-08-25 14:05:48,088  INFO EventsManagerImpl:207     > org.matsim.api.core.v01.events.PersonArrivalEvent
2015-08-25 14:05:48,088  INFO EventsManagerImpl:148   org.matsim.api.core.v01.events.handler.PersonStuckEventHandler
2015-08-25 14:05:48,089  INFO EventsManagerImpl:207     > org.matsim.api.core.v01.events.PersonStuckEvent
2015-08-25 14:05:48,089  INFO EventsManagerImpl:156 
2015-08-25 14:05:48,089  INFO EventsManagerImpl:144 adding Event-Handler: org.matsim.analysis.LegHistogram
2015-08-25 14:05:48,089  INFO EventsManagerImpl:148   org.matsim.api.core.v01.events.handler.PersonDepartureEventHandler
2015-08-25 14:05:48,089  INFO EventsManagerImpl:207     > org.matsim.api.core.v01.events.PersonDepartureEvent
2015-08-25 14:05:48,089  INFO EventsManagerImpl:148   org.matsim.api.core.v01.events.handler.PersonArrivalEventHandler
2015-08-25 14:05:48,089  INFO EventsManagerImpl:207     > org.matsim.api.core.v01.events.PersonArrivalEvent
2015-08-25 14:05:48,089  INFO EventsManagerImpl:148   org.matsim.api.core.v01.events.handler.PersonStuckEventHandler
2015-08-25 14:05:48,089  INFO EventsManagerImpl:207     > org.matsim.api.core.v01.events.PersonStuckEvent
2015-08-25 14:05:48,089  INFO EventsManagerImpl:156 
2015-08-25 14:05:48,089  INFO EventsManagerImpl:144 adding Event-Handler: org.matsim.analysis.CalcLegTimes
2015-08-25 14:05:48,089  INFO EventsManagerImpl:148   org.matsim.api.core.v01.events.handler.PersonDepartureEventHandler
2015-08-25 14:05:48,090  INFO EventsManagerImpl:207     > org.matsim.api.core.v01.events.PersonDepartureEvent
2015-08-25 14:05:48,090  INFO EventsManagerImpl:148   org.matsim.api.core.v01.events.handler.PersonArrivalEventHandler
2015-08-25 14:05:48,090  INFO EventsManagerImpl:207     > org.matsim.api.core.v01.events.PersonArrivalEvent
2015-08-25 14:05:48,090  INFO EventsManagerImpl:148   org.matsim.api.core.v01.events.handler.ActivityEndEventHandler
2015-08-25 14:05:48,090  INFO EventsManagerImpl:207     > org.matsim.api.core.v01.events.ActivityEndEvent
2015-08-25 14:05:48,090  INFO EventsManagerImpl:148   org.matsim.api.core.v01.events.handler.ActivityStartEventHandler
2015-08-25 14:05:48,090  INFO EventsManagerImpl:207     > org.matsim.api.core.v01.events.ActivityStartEvent
2015-08-25 14:05:48,090  INFO EventsManagerImpl:156 
2015-08-25 14:05:48,090  INFO EventsManagerImpl:144 adding Event-Handler: org.matsim.analysis.CalcLegTimes
2015-08-25 14:05:48,090  INFO EventsManagerImpl:148   org.matsim.api.core.v01.events.handler.PersonDepartureEventHandler
2015-08-25 14:05:48,090  INFO EventsManagerImpl:207     > org.matsim.api.core.v01.events.PersonDepartureEvent
2015-08-25 14:05:48,090  INFO EventsManagerImpl:148   org.matsim.api.core.v01.events.handler.PersonArrivalEventHandler
2015-08-25 14:05:48,090  INFO EventsManagerImpl:207     > org.matsim.api.core.v01.events.PersonArrivalEvent
2015-08-25 14:05:48,091  INFO EventsManagerImpl:148   org.matsim.api.core.v01.events.handler.ActivityEndEventHandler
2015-08-25 14:05:48,091  INFO EventsManagerImpl:207     > org.matsim.api.core.v01.events.ActivityEndEvent
2015-08-25 14:05:48,091  INFO EventsManagerImpl:148   org.matsim.api.core.v01.events.handler.ActivityStartEventHandler
2015-08-25 14:05:48,091  INFO EventsManagerImpl:207     > org.matsim.api.core.v01.events.ActivityStartEvent
2015-08-25 14:05:48,091  INFO EventsManagerImpl:156 
2015-08-25 14:05:48,092  INFO CalcLinkStats:148  resetting `count' to zero.  This info is here since we want to check when this is happening during normal simulation runs.  kai, jan'11
2015-08-25 14:05:48,104  INFO ControlerListenerManager:108 calling notifyStartup on org.matsim.counts.CountsControlerListener
2015-08-25 14:05:48,104  INFO ControlerListenerManager:108 calling notifyStartup on org.matsim.analysis.ScoreStatsControlerListener
2015-08-25 14:05:48,104  INFO ControlerListenerManager:111 all ControlerStartupListeners called.
2015-08-25 14:05:48,104  INFO AbstractController:326 config dump before iterations start
2015-08-25 14:05:48,126  INFO AbstractController:330 

<?xml version="1.0" encoding="UTF-8"?>
<!DOCTYPE config SYSTEM "http://www.matsim.org/files/dtd/config_v2.dtd">
<config>

<!-- ====================================================================== -->

	<module name="TimeAllocationMutator" >
		<param name="mutationAffectsDuration" value="true" />

		<!-- Default:1800.0; Defines how many seconds a time mutation can maximally shift a time. -->
		<param name="mutationRange" value="1800.0" />
	</module>

<!-- ====================================================================== -->

	<module name="controler" >

		<!-- Default=false;  -->
		<param name="enableLinkToLinkRouting" value="false" />

		<!-- Default=xml; Specifies the file format for writing events. Currently supported: txt, xml.
		Multiple values can be specified separated by commas (','). -->
		<param name="eventsFileFormat" value="xml" />

		<!-- Default=0;  -->
		<param name="firstIteration" value="0" />

		<!-- Default=1000;  -->
		<param name="lastIteration" value="20" />

		<!-- Defines which mobility simulation will be used. Currently supported: qsim JDEQSim 
		Depending on the chosen mobsim, you'll have to add additional config modules to configure the corresponding mobsim.
		For 'qsim', add a module 'qsim' to the config. -->
		<param name="mobsim" value="qsim" />

		<param name="outputDirectory" value="./output" />

		<!-- The type of routing (least cost path) algorithm used, may have the values: Dijkstra, FastDijkstra, AStarLandmarks or FastAStarLandmarks -->
		<param name="routingAlgorithmType" value="Dijkstra" />

		<!-- An identifier for the current run which is used as prefix for output files and mentioned in output xml files etc. -->
		<param name="runId" value="null" />

		<!-- Comma-separated list of visualizer output file formats. `transims', `googleearth', and `otfvis'. -->
		<param name="snapshotFormat" value="" />

		<!-- iterationNumber % writeEventsInterval == 0 defines in which iterations events are written to a file. `0' disables events writing completely. -->
		<param name="writeEventsInterval" value="10" />

		<!-- iterationNumber % writePlansInterval == 0 defines (hopefully) in which iterations plans are written to a file. `0' disables plans writing completely.  Some plans in early iterations are always written -->
		<param name="writePlansInterval" value="1" />

		<!-- iterationNumber % writeSnapshotsInterval == 0 defines in which iterations snapshots are written to a file. `0' disables snapshots writing completely -->
		<param name="writeSnapshotsInterval" value="0" />
	</module>

<!-- ====================================================================== -->

	<module name="counts" >

		<!-- Transport modes that will be respected for the counts comparison. 'car' is default, which includes also bussed from the pt simulation module. Use this parameter in combination with 'filterModes' = true! -->
		<param name="analyzedModes" value="car" />

		<!-- Specifies over how many iterations the link volumes should be averaged that are used for the counts comparison. Use 1 or 0 to only use the link volumes of a single iteration. This values cannot be larger than the value specified for writeCountsInterval -->
		<param name="averageCountsOverIterations" value="5" />

		<!-- factor by which to re-scale the simulated values.  necessary when simulation runs with something different from 100%.  needs to be adapted manually -->
		<param name="countsScaleFactor" value="1.0" />

		<!-- distance to distanceFilterCenterNode to include counting stations. The unit of distance is the Euclidean distance implied by the coordinate system -->
		<param name="distanceFilter" value="null" />

		<!-- node id for center node of distance filter -->
		<param name="distanceFilterCenterNode" value="null" />

		<!-- If true, link counts from legs performed on modes not included in the 'analyzedModes' parameter are ignored. -->
		<param name="filterModes" value="false" />

		<!-- input file name to counts package -->
		<param name="inputCountsFile" value="null" />

		<!-- possible values: `html', `kml', `txt', `all' -->
		<param name="outputformat" value="txt" />

		<!-- Specifies how often the counts comparison should be calculated and written. -->
		<param name="writeCountsInterval" value="10" />
	</module>

<!-- ====================================================================== -->

	<module name="facilities" >
		<param name="inputFacilitiesFile" value="null" />
		<param name="inputFacilityAttributesFile" value="null" />
	</module>

<!-- ====================================================================== -->

	<module name="global" >
		<param name="coordinateSystem" value="EPSG:3115" />

		<!-- "global" number of threads.  This number is used, e.g., for replanning, but NOT in the mobsim.  This can typically be set to as many cores as you have available, or possibly even slightly more. -->
		<param name="numberOfThreads" value="2" />

		<param name="randomSeed" value="5399998864266990000" />
	</module>

<!-- ====================================================================== -->

	<module name="households" >
		<param name="inputFile" value="null" />
		<param name="inputHouseholdAttributesFile" value="null" />
	</module>

<!-- ====================================================================== -->

	<module name="linkStats" >

		<!-- Specifies over how many iterations the link volumes should be averaged that are used for the link statistics. Use 1 or 0 to only use the link volumes of a single iteration. This values cannot be larger than the value specified for writeLinkStatsInterval -->
		<param name="averageLinkStatsOverIterations" value="1" />

		<!-- Specifies how often the link stats should be calculated and written. Use 0 to disable the generation of link stats. -->
		<param name="writeLinkStatsInterval" value="10" />
	</module>

<!-- ====================================================================== -->

	<module name="network" >
		<param name="inputChangeEventsFile" value="null" />
		<param name="inputNetworkFile" value="./input/specialNetwork.xml" />
		<param name="laneDefinitionsFile" value="null" />
		<param name="timeVariantNetwork" value="false" />
	</module>

<!-- ====================================================================== -->

	<module name="parallelEventHandling" >

		<!-- Estimated number of events during mobsim run. An optional optimization hint for the framework. -->
		<param name="estimatedNumberOfEvents" value="null" />

		<!-- Number of threads for parallel events handler. 0 or null means the framework decides by itself. -->
		<param name="numberOfThreads" value="null" />
	</module>

<!-- ====================================================================== -->

	<module name="planCalcScore" >

		<!-- logit model scale parameter. default: 1.  Has name and default value for historical reasons (see Bryan Raney's phd thesis). -->
		<param name="BrainExpBeta" value="2.0" />

		<param name="PathSizeLogitBeta" value="1.0" />

		<!-- [utils/hr] utility for departing early (i.e. before the earliest end time).  Normally negative.  Probably implemented correctly, but not tested. -->
		<param name="earlyDeparture" value="0.0" />

		<!-- [utils/hr] utility for arriving late (i.e. after the latest start time).  normally negative -->
		<param name="lateArrival" value="-18.0" />

		<!-- new_score = (1-learningRate)*old_score + learningRate * score_from_mobsim.  learning rates close to zero emulate score averaging, but slow down initial convergence -->
		<param name="learningRate" value="1.0" />

		<!-- [utils/unit_of_money] conversion of money (e.g. toll, distance cost) into utils. Normall positive (i.e. toll/cost/fare are processed as negative amounts of money). -->
		<param name="marginalUtilityOfMoney" value="1.0" />

		<!-- [utils/hr] marginal utility of doing an activity.  normally positive.  also the opportunity cost of time if agent is doing nothing.  MATSim separates the resource value of time from the direct (dis)utility of travel time, see, e.g., Boerjesson and Eliasson, TR-A 59 (2014) 144-158. -->
		<param name="performing" value="6.0" />

		<!-- There used to be a plateau between duration=0 and duration=zeroUtilityDuration. This caused durations to evolve to zero once they were below zeroUtilityDuration, causing problems.  Only use this switch if you need to be backwards compatible with some old results.  (changed nov'13) -->
		<param name="usingOldScoringBelowZeroUtilityDuration" value="false" />

		<!-- [utils] utility of switching a line (= transfer penalty).  Normally negative -->
		<param name="utilityOfLineSwitch" value="-1.0" />

		<!-- [utils/hr] additional marginal utility for waiting. normally negative. this comes on top of the opportunity cost of time.  Probably implemented correctly, but not tested. -->
		<param name="waiting" value="0.0" />

		<!-- write a plans file in each iteration directory which contains what each agent actually did, and the score it received. -->
		<param name="writeExperiencedPlans" value="false" />

		<parameterset type="activityParams" >
			<param name="activityType" value="h" />
			<param name="closingTime" value="undefined" />
			<param name="earliestEndTime" value="undefined" />
			<param name="latestStartTime" value="undefined" />
			<param name="minimalDuration" value="08:00:00" />
			<param name="openingTime" value="undefined" />
			<param name="priority" value="1.0" />
			<param name="scoringThisActivityAtAll" value="true" />
			<param name="typicalDuration" value="12:00:00" />
		</parameterset>

		<parameterset type="activityParams" >
			<param name="activityType" value="w" />
			<param name="closingTime" value="18:00:00" />
			<param name="earliestEndTime" value="16:00:00" />
			<param name="latestStartTime" value="09:00:00" />
			<param name="minimalDuration" value="06:00:00" />
			<param name="openingTime" value="07:00:00" />
			<param name="priority" value="1.0" />
			<param name="scoringThisActivityAtAll" value="true" />
			<param name="typicalDuration" value="08:00:00" />
		</parameterset>

		<parameterset type="activityParams" >
			<param name="activityType" value="pt interaction" />
			<param name="closingTime" value="00:00:00" />
			<param name="earliestEndTime" value="undefined" />
			<param name="latestStartTime" value="undefined" />
			<param name="minimalDuration" value="undefined" />
			<param name="openingTime" value="00:00:00" />
			<param name="priority" value="1.0" />
			<param name="scoringThisActivityAtAll" value="true" />
			<param name="typicalDuration" value="00:02:00" />
		</parameterset>

		<parameterset type="modeParams" >

			<!-- [utils] alternative-specific constant.  no guarantee that this is used anywhere. default=0 to be backwards compatible for the time being -->
			<param name="constant" value="0.0" />

			<!-- [utils/m] utility of walking per m, normally negative.  this is on top of the time (dis)utility. -->
			<param name="marginalUtilityOfDistance_util_m" value="0.0" />

			<!-- [utils/hr] additional marginal utility of traveling.  normally negative.  this comes on top of the opportunity cost of time -->
			<param name="marginalUtilityOfTraveling_util_hr" value="-6.0" />

			<param name="mode" value="car" />

			<!-- [unit_of_money/m] conversion of distance into money. Probably needs to be negative to work. -->
			<param name="monetaryDistanceCostRate" value="0.0" />
		</parameterset>

		<parameterset type="modeParams" >

			<!-- [utils] alternative-specific constant.  no guarantee that this is used anywhere. default=0 to be backwards compatible for the time being -->
			<param name="constant" value="0.0" />

			<!-- [utils/m] utility of walking per m, normally negative.  this is on top of the time (dis)utility. -->
			<param name="marginalUtilityOfDistance_util_m" value="0.0" />

			<!-- [utils/hr] additional marginal utility of traveling.  normally negative.  this comes on top of the opportunity cost of time -->
			<param name="marginalUtilityOfTraveling_util_hr" value="-6.0" />

			<param name="mode" value="pt" />

			<!-- [unit_of_money/m] conversion of distance into money. Probably needs to be negative to work. -->
			<param name="monetaryDistanceCostRate" value="0.0" />
		</parameterset>

		<parameterset type="modeParams" >

			<!-- [utils] alternative-specific constant.  no guarantee that this is used anywhere. default=0 to be backwards compatible for the time being -->
			<param name="constant" value="0.0" />

			<!-- [utils/m] utility of walking per m, normally negative.  this is on top of the time (dis)utility. -->
			<param name="marginalUtilityOfDistance_util_m" value="0.0" />

			<!-- [utils/hr] additional marginal utility of traveling.  normally negative.  this comes on top of the opportunity cost of time -->
			<param name="marginalUtilityOfTraveling_util_hr" value="-6.0" />

			<param name="mode" value="walk" />

			<!-- [unit_of_money/m] conversion of distance into money. Probably needs to be negative to work. -->
			<param name="monetaryDistanceCostRate" value="0.0" />
		</parameterset>

		<parameterset type="modeParams" >

			<!-- [utils] alternative-specific constant.  no guarantee that this is used anywhere. default=0 to be backwards compatible for the time being -->
			<param name="constant" value="0.0" />

			<!-- [utils/m] utility of walking per m, normally negative.  this is on top of the time (dis)utility. -->
			<param name="marginalUtilityOfDistance_util_m" value="0.0" />

			<!-- [utils/hr] additional marginal utility of traveling.  normally negative.  this comes on top of the opportunity cost of time -->
			<param name="marginalUtilityOfTraveling_util_hr" value="-6.0" />

			<param name="mode" value="bike" />

			<!-- [unit_of_money/m] conversion of distance into money. Probably needs to be negative to work. -->
			<param name="monetaryDistanceCostRate" value="0.0" />
		</parameterset>

		<parameterset type="modeParams" >

			<!-- [utils] alternative-specific constant.  no guarantee that this is used anywhere. default=0 to be backwards compatible for the time being -->
			<param name="constant" value="0.0" />

			<!-- [utils/m] utility of walking per m, normally negative.  this is on top of the time (dis)utility. -->
			<param name="marginalUtilityOfDistance_util_m" value="0.0" />

			<!-- [utils/hr] additional marginal utility of traveling.  normally negative.  this comes on top of the opportunity cost of time -->
			<param name="marginalUtilityOfTraveling_util_hr" value="-6.0" />

			<param name="mode" value="other" />

			<!-- [unit_of_money/m] conversion of distance into money. Probably needs to be negative to work. -->
			<param name="monetaryDistanceCostRate" value="0.0" />
		</parameterset>
	</module>

<!-- ====================================================================== -->

	<module name="plans" >

		<!-- String: minOfDurationAndEndTime tryEndTimeThenDuration endTimeOnly. Anything besides minOfDurationAndEndTime will internally use a different (simpler) version of the TimeAllocationMutator. -->
		<param name="activityDurationInterpretation" value="tryEndTimeThenDuration" />

		<!-- Path to a file containing person attributes (required file format: ObjectAttributes). -->
		<param name="inputPersonAttributesFile" value="null" />

		<param name="inputPlansFile" value="./input/plans_sitm_cali_25.08.2015.xml" />

		<!-- Defines how routes are stored in memory. Currently supported: LinkNetworkRoute, CompressedNetworkRoute. -->
		<param name="networkRouteType" value="LinkNetworkRoute" />

		<!-- Name of the (Object)Attribute defining the subpopulation to which pertains a Person (as freight, through traffic, etc.). The attribute must be of String type. -->
		<param name="subpopulationAttributeName" value="subpopulation" />
	</module>

<!-- ====================================================================== -->

	<module name="planscalcroute" >

		<!-- factor with which beeline distances (and therefore times) are multiplied in order to obtain an estimate of the network distances/times.  Default is something like 1.3 -->
		<param name="beelineDistanceFactor" value="1.3" />

		<!-- All the modes for which the router is supposed to generate network routes (like car) -->
		<param name="networkModes" value="car,ride" />

		<parameterset type="teleportedModeParameters" >
			<param name="mode" value="bike" />

			<!-- Free-speed factor for a teleported mode. Travel time = teleportedModeFreespeedFactor * <freespeed car travel time>. Insert a line like this for every such mode. Please do not set teleportedModeFreespeedFactor as well as teleportedModeSpeed for the same mode, but if you do, +teleportedModeFreespeedFactor wins over teleportedModeSpeed. -->
			<param name="teleportedModeFreespeedFactor" value="null" />

			<!-- Speed for a teleported mode. Travel time = (<beeline distance> * beelineDistanceFactor) / teleportedModeSpeed. Insert a line like this for every such mode. -->
			<param name="teleportedModeSpeed" value="4.166666666666667" />
		</parameterset>

		<parameterset type="teleportedModeParameters" >
			<param name="mode" value="walk" />

			<!-- Free-speed factor for a teleported mode. Travel time = teleportedModeFreespeedFactor * <freespeed car travel time>. Insert a line like this for every such mode. Please do not set teleportedModeFreespeedFactor as well as teleportedModeSpeed for the same mode, but if you do, +teleportedModeFreespeedFactor wins over teleportedModeSpeed. -->
			<param name="teleportedModeFreespeedFactor" value="null" />

			<!-- Speed for a teleported mode. Travel time = (<beeline distance> * beelineDistanceFactor) / teleportedModeSpeed. Insert a line like this for every such mode. -->
			<param name="teleportedModeSpeed" value="0.8333333333333333" />
		</parameterset>

		<parameterset type="teleportedModeParameters" >
			<param name="mode" value="undefined" />

			<!-- Free-speed factor for a teleported mode. Travel time = teleportedModeFreespeedFactor * <freespeed car travel time>. Insert a line like this for every such mode. Please do not set teleportedModeFreespeedFactor as well as teleportedModeSpeed for the same mode, but if you do, +teleportedModeFreespeedFactor wins over teleportedModeSpeed. -->
			<param name="teleportedModeFreespeedFactor" value="null" />

			<!-- Speed for a teleported mode. Travel time = (<beeline distance> * beelineDistanceFactor) / teleportedModeSpeed. Insert a line like this for every such mode. -->
			<param name="teleportedModeSpeed" value="13.88888888888889" />
		</parameterset>

		<parameterset type="teleportedModeParameters" >
			<param name="mode" value="pt" />

			<!-- Free-speed factor for a teleported mode. Travel time = teleportedModeFreespeedFactor * <freespeed car travel time>. Insert a line like this for every such mode. Please do not set teleportedModeFreespeedFactor as well as teleportedModeSpeed for the same mode, but if you do, +teleportedModeFreespeedFactor wins over teleportedModeSpeed. -->
			<param name="teleportedModeFreespeedFactor" value="2.0" />

			<!-- Speed for a teleported mode. Travel time = (<beeline distance> * beelineDistanceFactor) / teleportedModeSpeed. Insert a line like this for every such mode. -->
			<param name="teleportedModeSpeed" value="null" />
		</parameterset>
	</module>

<!-- ====================================================================== -->

	<module name="ptCounts" >

		<!-- factor by which to re-scale the simulated values.  necessary when simulation runs with something different from 100%.  needs to be adapted manually -->
		<param name="countsScaleFactor" value="1.0" />

		<!-- distance to distanceFilterCenterNode to include counting stations. The unit of distance is the Euclidean distance implied by the coordinate system -->
		<param name="distanceFilter" value="null" />

		<!-- node id for center node of distance filter -->
		<param name="distanceFilterCenterNode" value="null" />

		<!-- input file containing the alighting (getting off) counts for pt -->
		<param name="inputAlightCountsFile" value="null" />

		<!-- input file containing the boarding (getting on) counts for pt -->
		<param name="inputBoardCountsFile" value="null" />

		<!-- input file containing the occupancy counts for pt -->
		<param name="inputOccupancyCountsFile" value="null" />

		<!-- possible values: `html', `kml', `txt', `all' -->
		<param name="outputformat" value="null" />

		<!-- every how many iterations (starting with 0) counts comparisons are generated -->
		<param name="ptCountsInterval" value="10" />
	</module>

<!-- ====================================================================== -->

	<module name="qsim" >
		<param name="endTime" value="24:00:00" />
		<param name="flowCapacityFactor" value="1.0" />

		<!-- decides if waiting vehicles enter the network after or before the already driving vehicles were moved. Default: false -->
		<param name="insertingWaitingVehiclesBeforeDrivingVehicles" value="false" />

		<!-- default: FIFO; options: FIFO PassingQ -->
		<param name="linkDynamics" value="FIFO" />

		<!-- The (initial) width of the links of the network. Use positive floating point values. -->
		<param name="linkWidth" value="30.0" />

		<!-- [comma-separated list] Defines which modes are congested modes. Technically, these are the modes that the departure handler of the netsimengine handles.  Effective cell size, effective lane width, flow capacity factor, and storage capacity factor need to be set with diligence.  Need to be vehicular modes to make sense. -->
		<param name="mainMode" value="car" />

		<!-- Shortens a link in the visualization, i.e. its start and end point are moved into towards the center. Does not affect traffic flow.  -->
		<param name="nodeOffset" value="0.0" />

		<!-- Number of threads used for the QSim.  Note that this setting is independent from the "global" threads setting.  In contrast to earlier versions, the non-parallel special version is no longer there. -->
		<param name="numberOfThreads" value="1" />

		<!-- Boolean. `true': stuck vehicles are removed, aborting the plan; `false': stuck vehicles are forced into the next link. `false' is probably the better choice. -->
		<param name="removeStuckVehicles" value="false" />

		<!-- `maxOfStarttimeAndEarliestActivityEnd' (default behavior) or `onlyUseStarttime' -->
		<param name="simStarttimeInterpretation" value="maxOfStarttimeAndEarliestActivityEnd" />

		<!-- snapshotStyle. One of: equiDist (vehicles equidistant on link) or queue (vehicles queued at end of link) or withHoles (experimental!!) -->
		<param name="snapshotStyle" value="equiDist" />

		<param name="snapshotperiod" value="00:00:00" />
		<param name="startTime" value="00:00:00" />
		<param name="storageCapacityFactor" value="1.0" />

		<!-- time in seconds.  Time after which the frontmost vehicle on a link is called `stuck' if it does not move. -->
		<param name="stuckTime" value="10.0" />

		<param name="timeStepSize" value="00:00:01" />

		<!-- `queue' for the standard queue model, `withHoles' (experimental!!) for the queue model with holes -->
		<param name="trafficDynamics" value="queue" />

		<!-- If this is true, we do not expect (or use) vehicles from the vehicles database, but create vehicles on the fly with default properties. -->
		<param name="useDefaultVehicles" value="true" />

		<!-- If a route does not reference a vehicle, agents will use the vehicle with the same id as their own. -->
		<param name="usePersonIdForMissingVehicleId" value="true" />

		<!-- Defines what happens if an agent wants to depart, but the specified vehicle is not available. One of: teleport, wait, exception -->
		<param name="vehicleBehavior" value="teleport" />
	</module>

<!-- ====================================================================== -->

	<module name="scenario" >

		<!-- Set this parameter to true if households should be used, false if not. -->
		<param name="useHouseholds" value="false" />

		<!-- Set this parameter to true if lanes should be used, false if not. -->
		<param name="useLanes" value="false" />

		<!-- Set this parameter to true if signal systems should be used, false if not. -->
		<param name="useSignalsystems" value="false" />

		<!-- Set this parameter to true if transit should be simulated, false if not. -->
		<param name="useTransit" value="true" />

		<!-- Set this parameter to true if vehicles should be used, false if not. -->
		<param name="useVehicles" value="true" />
	</module>

<!-- ====================================================================== -->

	<module name="signalsystems" >
		<param name="ambertimes" value="null" />
		<param name="intergreentimes" value="null" />
		<param name="signalcontrol" value="null" />
		<param name="signalgroups" value="null" />
		<param name="signalsystems" value="null" />
		<param name="useAmbertimes" value="false" />
		<param name="useIntergreentimes" value="false" />
	</module>

<!-- ====================================================================== -->

	<module name="strategy" >

		<!-- the external executable will be called with a config file as argument.  This is the pathname to a possible skeleton config, to which additional information will be added.  Can be null. -->
		<param name="ExternalExeConfigTemplate" value="null" />

		<!-- time out value (in seconds) after which matsim will consider the external strategy as failed -->
		<param name="ExternalExeTimeOut" value="3600" />

		<!-- root directory for temporary files generated by the external executable. Provided as a service; I don't think this is used by MATSim. -->
		<param name="ExternalExeTmpFileRootDir" value="null" />

		<!-- fraction of iterations where innovative strategies are switched off.  Something link 0.8 should be good.  E.g. if you run from iteration 400 to iteration 500, innovation is switched off at iteration 480 -->
		<param name="fractionOfIterationsToDisableInnovation" value="Infinity" />

		<!-- maximum number of plans per agent.  ``0'' means ``infinity''.  Currently (2010), ``5'' is a good number -->
		<param name="maxAgentPlanMemorySize" value="4" />

		<!-- name of PlanSelector for plans removal. WorstPlanSelector is not a good choice from a discrete choice theoretical perspective. Alternatives, however, have not been systematically tested. kai, feb'12 -->
		<param name="planSelectorForRemoval" value="WorstPlanSelector" />

		<parameterset type="strategysettings" >

			<!-- iteration after which strategy will be disabled.  most useful for ``innovative'' strategies (new routes, new times, ...) -->
			<param name="disableAfterIteration" value="-1" />

			<!-- path to external executable (if applicable) -->
			<param name="executionPath" value="null" />

			<!-- name of strategy (if not full class name, resolved in StrategyManagerConfigLoader) -->
			<param name="strategyName" value="BestScore" />

			<!-- subpopulation to which the strategy applies. "null" refers to the default population, that is, the set of persons for which no explicit subpopulation is defined (ie no subpopulation attribute) -->
			<param name="subpopulation" value="null" />

			<!-- weight of a strategy: for each agent, a strategy will be selected with a probability proportional to its weight -->
			<param name="weight" value="0.7" />
		</parameterset>

		<parameterset type="strategysettings" >

			<!-- iteration after which strategy will be disabled.  most useful for ``innovative'' strategies (new routes, new times, ...) -->
			<param name="disableAfterIteration" value="-1" />

			<!-- path to external executable (if applicable) -->
			<param name="executionPath" value="null" />

			<!-- name of strategy (if not full class name, resolved in StrategyManagerConfigLoader) -->
			<param name="strategyName" value="ReRoute" />

			<!-- subpopulation to which the strategy applies. "null" refers to the default population, that is, the set of persons for which no explicit subpopulation is defined (ie no subpopulation attribute) -->
			<param name="subpopulation" value="null" />

			<!-- weight of a strategy: for each agent, a strategy will be selected with a probability proportional to its weight -->
			<param name="weight" value="0.3" />
		</parameterset>
	</module>

<!-- ====================================================================== -->

	<module name="subtourModeChoice" >

		<!-- Defines the chain-based modes, seperated by commas -->
		<param name="chainBasedModes" value="car,bike" />

		<!-- Defines whether car availability must be considered or not. A agent has no car only if it has no license, or never access to a car -->
		<param name="considerCarAvailability" value="false" />

		<!-- Defines all the modes available, including chain-based modes, seperated by commas -->
		<param name="modes" value="car,pt,bike,walk" />
	</module>

<!-- ====================================================================== -->

	<module name="transit" >

		<!-- Comma-separated list of transportation modes that are handled as transit. Defaults to 'pt'. -->
		<param name="transitModes" value="pt" />

		<!-- Input file containing the transit schedule to be simulated. -->
		<param name="transitScheduleFile" value="./input/transitSchedule.xml" />

		<!-- Input file containing the vehicles used by the departures in the transit schedule. -->
		<param name="vehiclesFile" value="./input/transitVehicles.xml" />
	</module>

<!-- ====================================================================== -->

	<module name="transitRouter" >

		<!-- additional time the router allocates when a line switch happens. Can be interpreted as a 'safety' time that agents need to safely transfer from one line to another -->
		<param name="additionalTransferTime" value="0.0" />

		<!-- step size to increase searchRadius if no stops are found -->
		<param name="extensionRadius" value="200.0" />

		<!-- maximum beeline distance between stops that agents could transfer to by walking -->
		<param name="maxBeelineWalkConnectionDistance" value="100.0" />

		<!-- the radius in which stop locations are searched, given a start or target coordinate -->
		<param name="searchRadius" value="1000.0" />
	</module>

<!-- ====================================================================== -->

	<module name="travelTimeCalculator" >

		<!-- Transport modes that will be respected by the travel time collector. 'car' is default, which includes also bussed from the pt simulation module. Use this parameter in combination with 'filterModes' = true! -->
		<param name="analyzedModes" value="car" />

		<param name="calculateLinkToLinkTravelTimes" value="false" />
		<param name="calculateLinkTravelTimes" value="true" />

		<!-- If true, link travel times from legs performed on modes not included in the 'analyzedModes' parameter are ignored. -->
		<param name="filterModes" value="false" />

		<!-- How to deal with congested time bins that have no link entry events. `optimistic' assumes free speed (too optimistic); 'experimental_LastMile' is experimental and probably too pessimistic. -->
		<param name="travelTimeAggregator" value="optimistic" />

		<!-- The size of the time bin (in sec) into which the link travel times are aggregated for the router -->
		<param name="travelTimeBinSize" value="900" />

		<!-- possible values: nullTravelTimeCalculatorArray TravelTimeCalculatorHashMap  -->
		<param name="travelTimeCalculator" value="TravelTimeCalculatorArray" />

		<!-- How to deal with link entry times at different positions during the time bin. Currently supported: average, linearinterpolation -->
		<param name="travelTimeGetter" value="average" />
	</module>

<!-- ====================================================================== -->

	<module name="vspExperimental" >

		<!-- (do not use) set chainBasedModes for subTourModeChoice by Yu. E.g. "car,bike", "car" -->
		<param name="chainBasedModes" value="car" />

		<!-- fraction of iterations at which MSA score averaging is started. The matsim theory department suggests to use this together with switching off choice set innovation (where a similar switch exists), but it has not been tested yet. -->
		<param name="fractionOfIterationsToStartScoreMSA" value="null" />

		<!-- (do not use) Set this filename of MZ05 daily analysis -->
		<param name="inputMZ05File" value="" />

		<!-- (do not use except of you have to) There was a problem with pt interaction scoring.  Some people solved it by overwriting the parameters of the pt interaction activity type.  Doing this now throws an Exception.  If you still insist on doing this, set the following to true. -->
		<param name="isAbleToOverwritePtInteractionParams" value="false" />

		<param name="isGeneratingBoardingDeniedEvent" value="false" />

		<!-- if an approximation of the opportunity cost of time is included into the radius calculation for location choice.`true' will be faster, but it is an approximation.  Default is `true'; `false' is available for backwards compatibility. -->
		<param name="isUsingOpportunityCostOfTimeForLocationChoice" value="true" />

		<param name="logitScaleParamForPlansRemoval" value="1.0" />

		<!-- changes MATSim's global time format used in output files. Can be used to enforce writing fractional seconds e.g. in output_plans.  default is `hh:mm:ss' (because of backwards compatibility). see Time.java for possible formats -->
		<param name="matsimGlobalTimeformat" value="HH:mm:ss" />

		<!-- (do not use) set the traffic mode option for subTourModeChoice by Yu -->
		<param name="modes" value="car, pt" />

		<!-- (not tested) will remove plan attributes that are presumably not used, such as activityStartTime. default=false -->
		<param name="removingUnnecessaryPlanAttributes" value="false" />

		<!-- (deprecated, use fractionOfIterationsToStartScoreMSA) first iteration of MSA score averaging. The matsim theory department suggests to use this together with switching of choice set innovation, but it has not been tested yet. -->
		<param name="scoreMSAStartsAtIteration" value="null" />

		<!-- Options: `ignore', `warn', `abort'.  Default: either `ignore' or `warn'.
		When violating VSP defaults, this results in nothing, warnings, or aborts.  Members of VSP should use `abort' or talk to kai. -->
		<param name="vspDefaultsCheckingLevel" value="ignore" />

		<!-- if true then writes output_events in output directory.  default is `false'. Will only work when lastIteration is multiple of events writing interval -->
		<param name="writingOutputEvents" value="false" />
	</module>

<!-- ====================================================================== -->

</config>

2015-08-25 14:05:48,136  INFO AbstractController:331 Complete config dump done.
2015-08-25 14:05:48,136  INFO AbstractController:332 Checking consistency of config...
2015-08-25 14:05:48,137  INFO VspConfigConsistencyCheckerImpl:48 NOT running vsp config consistency check because vsp defaults checking level is set to IGNORE
2015-08-25 14:05:48,137  INFO AbstractController:334 Checking consistency of config done.
2015-08-25 14:05:48,205  INFO TransitRouterNetwork:366 start creating transit network
2015-08-25 14:05:48,213  INFO Counter:51  node #1
2015-08-25 14:05:48,213  INFO Counter:51  node #2
2015-08-25 14:05:48,216  INFO Counter:51  link #1
2015-08-25 14:05:48,216  INFO Counter:51  link #2
2015-08-25 14:05:48,216  INFO Counter:51  node #4
2015-08-25 14:05:48,216  INFO Counter:51  link #4
2015-08-25 14:05:48,216  INFO Counter:51  node #8
2015-08-25 14:05:48,216  INFO Counter:51  link #8
2015-08-25 14:05:48,216  INFO Counter:51  node #16
2015-08-25 14:05:48,217  INFO Counter:51  link #16
2015-08-25 14:05:48,217  INFO Counter:51  node #32
2015-08-25 14:05:48,217  INFO Counter:51  link #32
2015-08-25 14:05:48,217  INFO Counter:51  node #64
2015-08-25 14:05:48,217  INFO Counter:51  link #64
2015-08-25 14:05:48,245  INFO TransitRouterNetwork:392 add transfer links
2015-08-25 14:05:48,247  INFO TransitRouterNetwork:408 354 transfer links to be added.
2015-08-25 14:05:48,247  INFO Counter:51  link #128
2015-08-25 14:05:48,248  INFO Counter:51  link #256
2015-08-25 14:05:48,249  INFO TransitRouterNetwork:414 transit router network statistics:
2015-08-25 14:05:48,249  INFO TransitRouterNetwork:415  # nodes: 121
2015-08-25 14:05:48,249  INFO TransitRouterNetwork:416  # links total:     469
2015-08-25 14:05:48,249  INFO TransitRouterNetwork:417  # transfer links:  354
2015-08-25 14:05:48,499  INFO NetworkImpl:353 building QuadTree for nodes: xrange(1054300.199471335,1068258.738856779); yrange(855642.8375964143,878677.9055935786)
2015-08-25 14:05:48,511  INFO NetworkImpl:362 Building QuadTree took 0.013 seconds.
2015-08-25 14:05:48,611  INFO Counter:51 [PersonPrepareForSim] handled person # 1
2015-08-25 14:05:48,613  INFO Counter:51 [PersonPrepareForSim] handled person # 2
2015-08-25 14:05:48,614  INFO Counter:51 [PersonPrepareForSim] handled person # 4
2015-08-25 14:05:48,617  INFO Counter:51 [PersonPrepareForSim] handled person # 8
2015-08-25 14:05:48,624  INFO Counter:51 [PersonPrepareForSim] handled person # 16
2015-08-25 14:05:48,632  INFO Counter:51 [PersonPrepareForSim] handled person # 32
2015-08-25 14:05:48,647  INFO Counter:51 [PersonPrepareForSim] handled person # 64
2015-08-25 14:05:48,704  INFO Counter:51 [PersonPrepareForSim] handled person # 128
2015-08-25 14:05:48,721  INFO Counter:51 [PersonPrepareForSim] handled person # 256
2015-08-25 14:05:48,747  INFO Counter:51 [PersonPrepareForSim] handled person # 512
2015-08-25 14:05:48,797  INFO Counter:51 [PersonPrepareForSim] handled person # 1024
2015-08-25 14:05:48,905  INFO Counter:51 [PersonPrepareForSim] handled person # 2048
2015-08-25 14:05:49,028  INFO Counter:51 [PersonPrepareForSim] handled person # 4096
2015-08-25 14:05:49,236  INFO Counter:51 [PersonPrepareForSim] handled person # 8192
2015-08-25 14:05:49,759  INFO Counter:51 [PersonPrepareForSim] handled person # 16384
2015-08-25 14:05:50,359  INFO Counter:51 [PersonPrepareForSim] handled person # 32768
2015-08-25 14:05:51,280  INFO Counter:57 [PersonPrepareForSim] handled person # 59487
2015-08-25 14:05:51,280  INFO AbstractController:200 ###################################################
2015-08-25 14:05:51,280  INFO AbstractController:201 ### ITERATION 0 BEGINS
2015-08-25 14:05:51,317  INFO ControlerListenerManager:141 calling notifyIterationStarts on org.matsim.core.controler.corelisteners.PlansScoring
2015-08-25 14:05:51,602  INFO EventsManagerImpl:144 adding Event-Handler: org.matsim.core.scoring.EventsToScore
2015-08-25 14:05:51,603  INFO EventsManagerImpl:148   org.matsim.core.events.handler.BasicEventHandler
2015-08-25 14:05:51,603  INFO EventsManagerImpl:207     > org.matsim.api.core.v01.events.Event
2015-08-25 14:05:51,603  INFO EventsManagerImpl:156 
2015-08-25 14:05:51,603  INFO EventsManagerImpl:144 adding Event-Handler: org.matsim.core.scoring.EventsToScore
2015-08-25 14:05:51,603  INFO EventsManagerImpl:148   org.matsim.core.events.handler.BasicEventHandler
2015-08-25 14:05:51,603  INFO EventsManagerImpl:207     > org.matsim.api.core.v01.events.Event
2015-08-25 14:05:51,604  INFO EventsManagerImpl:156 
2015-08-25 14:05:51,604  INFO ControlerListenerManager:146 calling notifyIterationStarts on org.matsim.core.controler.corelisteners.LegHistogramListener
2015-08-25 14:05:51,604  INFO ControlerListenerManager:146 calling notifyIterationStarts on org.matsim.core.controler.corelisteners.LinkStatsControlerListener
2015-08-25 14:05:51,604  INFO ControlerListenerManager:149 [it.0] all ControlerIterationStartsListeners called.
2015-08-25 14:05:51,617  INFO ControlerListenerManager:225 calling notifyBeforeMobsim on org.matsim.core.controler.corelisteners.EventsHandling
2015-08-25 14:05:51,617  INFO EventsManagerImpl:170 resetting Event-Handlers
2015-08-25 14:05:51,617  INFO EventsManagerImpl:177   org.matsim.core.trafficmonitoring.TravelTimeCalculator
2015-08-25 14:05:51,617  INFO EventsManagerImpl:177   org.matsim.analysis.VolumesAnalyzer
2015-08-25 14:05:51,617  INFO EventsManagerImpl:177   org.matsim.analysis.LegHistogram
2015-08-25 14:05:51,617  INFO EventsManagerImpl:177   org.matsim.analysis.CalcLegTimes
2015-08-25 14:05:51,617  INFO EventsManagerImpl:177   org.matsim.core.scoring.EventsToScore
2015-08-25 14:05:51,717  INFO EventsManagerImpl:144 adding Event-Handler: org.matsim.core.events.algorithms.EventWriterXML
2015-08-25 14:05:51,717  INFO EventsManagerImpl:148   org.matsim.core.events.algorithms.EventWriter
2015-08-25 14:05:51,717  INFO EventsManagerImpl:148   org.matsim.core.events.handler.BasicEventHandler
2015-08-25 14:05:51,717  INFO EventsManagerImpl:207     > org.matsim.api.core.v01.events.Event
2015-08-25 14:05:51,717  INFO EventsManagerImpl:156 
2015-08-25 14:05:51,718  INFO EventsManagerImpl:144 adding Event-Handler: org.matsim.core.events.algorithms.EventWriterXML
2015-08-25 14:05:51,718  INFO EventsManagerImpl:148   org.matsim.core.events.algorithms.EventWriter
2015-08-25 14:05:51,718  INFO EventsManagerImpl:148   org.matsim.core.events.handler.BasicEventHandler
2015-08-25 14:05:51,718  INFO EventsManagerImpl:207     > org.matsim.api.core.v01.events.Event
2015-08-25 14:05:51,718  INFO EventsManagerImpl:156 
2015-08-25 14:05:51,753  INFO ControlerListenerManager:225 calling notifyBeforeMobsim on org.matsim.core.controler.corelisteners.PlansDumping
2015-08-25 14:05:51,753  INFO PlansDumping:77 dumping plans...
2015-08-25 14:05:51,804  INFO Counter:51 [PopulationWriter] dumped person # 1
2015-08-25 14:05:51,804  INFO Counter:51 [PopulationWriter] dumped person # 2
2015-08-25 14:05:51,804  INFO Counter:51 [PopulationWriter] dumped person # 4
2015-08-25 14:05:51,805  INFO Counter:51 [PopulationWriter] dumped person # 8
2015-08-25 14:05:51,807  INFO Counter:51 [PopulationWriter] dumped person # 16
2015-08-25 14:05:51,815  INFO Counter:51 [PopulationWriter] dumped person # 32
2015-08-25 14:05:51,819  INFO Counter:51 [PopulationWriter] dumped person # 64
2015-08-25 14:05:51,826  INFO Counter:51 [PopulationWriter] dumped person # 128
2015-08-25 14:05:51,838  INFO Counter:51 [PopulationWriter] dumped person # 256
2015-08-25 14:05:51,858  INFO Counter:51 [PopulationWriter] dumped person # 512
2015-08-25 14:05:51,890  INFO Counter:51 [PopulationWriter] dumped person # 1024
2015-08-25 14:05:51,974  INFO Counter:51 [PopulationWriter] dumped person # 2048
2015-08-25 14:05:52,092  INFO Counter:51 [PopulationWriter] dumped person # 4096
2015-08-25 14:05:52,345  INFO Counter:51 [PopulationWriter] dumped person # 8192
2015-08-25 14:05:52,750  INFO Counter:51 [PopulationWriter] dumped person # 16384
2015-08-25 14:05:53,553  INFO Counter:51 [PopulationWriter] dumped person # 32768
2015-08-25 14:05:55,055  INFO PopulationWriter:95 Population written to: ./output/ITERS/it.0/0.plans.xml.gz
2015-08-25 14:05:55,056  INFO Counter:57 [PopulationWriter] dumped person # 59487
2015-08-25 14:05:55,056  INFO PlansDumping:79 finished plans dump.
2015-08-25 14:05:55,057  INFO ControlerListenerManager:230 calling notifyBeforeMobsim on org.matsim.population.VspPlansCleaner
2015-08-25 14:05:55,123  INFO ControlerListenerManager:233 [it.0] all ControlerBeforeMobsimListeners called.
2015-08-25 14:05:55,885  INFO ReconstructingUmlaufBuilder:112 Generating UmlaufStuecke
2015-08-25 14:05:56,294  INFO QNetsimEngine:466 Assigned 2020 nodes and 2667 links to QSimEngineRunner #0
2015-08-25 14:05:56,443  INFO EventsManagerImpl:134  event # 1
2015-08-25 14:05:56,503  INFO QNetsimEngine:310 SIMULATION (QNetsimEngine) AT 01:08:00 : #links=0 #nodes=0
2015-08-25 14:05:56,503  INFO QSim:411 SIMULATION (NEW QSim) AT 01:08:00 : #Veh=59564 lost=0 simT=0.0s realT=1s; (s/r): 0.0
2015-08-25 14:05:56,503  INFO Gbl:52 used RAM: 353571456B = 345284kB = 337MB  free: 559738240B = 533MB  total: 913309696B = 871MB
2015-08-25 14:05:56,511  INFO EventsManagerImpl:134  event # 2
2015-08-25 14:05:56,539  INFO EventsManagerImpl:134  event # 4
2015-08-25 14:05:56,540  WARN CharyparNagelActivityScoring:212 encountering duration < zeroUtilityDuration; the logic for this was changed around mid-nov 2013.
2015-08-25 14:05:56,540  WARN CharyparNagelActivityScoring:213 your final score thus will be different from earlier runs; set usingOldScoringBelowZeroUtilityDuration to true if you absolutely need the old version.  See https://matsim.atlassian.net/browse/MATSIM-191.
2015-08-25 14:05:56,540  WARN CharyparNagelActivityScoring:215  This message given only once.
2015-08-25 14:05:56,540  INFO EventsManagerImpl:134  event # 8
2015-08-25 14:05:56,553  INFO EventsManagerImpl:134  event # 16
2015-08-25 14:05:56,568  INFO EventsManagerImpl:134  event # 32
2015-08-25 14:05:56,580  INFO QNetsimEngine:310 SIMULATION (QNetsimEngine) AT 02:00:00 : #links=0 #nodes=0
2015-08-25 14:05:56,581  INFO QSim:411 SIMULATION (NEW QSim) AT 02:00:00 : #Veh=59564 lost=0 simT=3120.0s realT=1s; (s/r): 3120.0
2015-08-25 14:05:56,581  INFO Gbl:52 used RAM: 353571456B = 345284kB = 337MB  free: 559738240B = 533MB  total: 913309696B = 871MB
2015-08-25 14:05:56,608  INFO EventsManagerImpl:134  event # 64
2015-08-25 14:05:56,632  INFO QNetsimEngine:310 SIMULATION (QNetsimEngine) AT 03:00:00 : #links=0 #nodes=0
2015-08-25 14:05:56,632  INFO QSim:411 SIMULATION (NEW QSim) AT 03:00:00 : #Veh=59564 lost=0 simT=6720.0s realT=1s; (s/r): 6720.0
2015-08-25 14:05:56,632  INFO Gbl:52 used RAM: 362345416B = 353852kB = 345MB  free: 550964280B = 525MB  total: 913309696B = 871MB
2015-08-25 14:05:56,676  INFO QNetsimEngine:310 SIMULATION (QNetsimEngine) AT 04:00:00 : #links=0 #nodes=0
2015-08-25 14:05:56,676  INFO QSim:411 SIMULATION (NEW QSim) AT 04:00:00 : #Veh=59564 lost=0 simT=10320.0s realT=1s; (s/r): 10320.0
2015-08-25 14:05:56,676  INFO Gbl:52 used RAM: 362345416B = 353852kB = 345MB  free: 550964280B = 525MB  total: 913309696B = 871MB
2015-08-25 14:05:56,698  INFO EventsManagerImpl:134  event # 128
2015-08-25 14:05:56,707  INFO EventsManagerImpl:134  event # 256
2015-08-25 14:05:56,715  INFO EventsManagerImpl:134  event # 512
2015-08-25 14:05:56,726  INFO EventsManagerImpl:134  event # 1024
2015-08-25 14:05:56,743  INFO QNetsimEngine:310 SIMULATION (QNetsimEngine) AT 05:00:00 : #links=3 #nodes=0
2015-08-25 14:05:56,744  INFO QSim:411 SIMULATION (NEW QSim) AT 05:00:00 : #Veh=59560 lost=0 simT=13920.0s realT=1s; (s/r): 13920.0
2015-08-25 14:05:56,744  INFO Gbl:52 used RAM: 362345416B = 353852kB = 345MB  free: 550964280B = 525MB  total: 913309696B = 871MB
2015-08-25 14:05:56,766  INFO EventsManagerImpl:134  event # 2048
2015-08-25 14:05:56,882  INFO EventsManagerImpl:134  event # 4096
2015-08-25 14:05:56,947  INFO EventsManagerImpl:134  event # 8192
2015-08-25 14:05:57,035  INFO EventsManagerImpl:134  event # 16384
2015-08-25 14:05:57,184  INFO EventsManagerImpl:134  event # 32768
2015-08-25 14:05:57,331  INFO QNetsimEngine:310 SIMULATION (QNetsimEngine) AT 06:00:00 : #links=21 #nodes=3
2015-08-25 14:05:57,331  INFO QSim:411 SIMULATION (NEW QSim) AT 06:00:00 : #Veh=59542 lost=0 simT=17520.0s realT=2s; (s/r): 8760.0
2015-08-25 14:05:57,331  INFO Gbl:52 used RAM: 398246464B = 388912kB = 379MB  free: 515063232B = 491MB  total: 913309696B = 871MB
2015-08-25 14:05:57,453  INFO EventsManagerImpl:134  event # 65536
2015-08-25 14:05:57,933  INFO EventsManagerImpl:134  event # 131072
2015-08-25 14:05:58,522  INFO QNetsimEngine:310 SIMULATION (QNetsimEngine) AT 07:00:00 : #links=33 #nodes=3
2015-08-25 14:05:58,522  INFO QSim:411 SIMULATION (NEW QSim) AT 07:00:00 : #Veh=59452 lost=0 simT=21120.0s realT=3s; (s/r): 7040.0
2015-08-25 14:05:58,523  INFO Gbl:52 used RAM: 510573384B = 498606kB = 486MB  free: 402736312B = 384MB  total: 913309696B = 871MB
2015-08-25 14:05:58,836  INFO EventsManagerImpl:134  event # 262144
2015-08-25 14:05:59,356  INFO QNetsimEngine:310 SIMULATION (QNetsimEngine) AT 08:00:00 : #links=33 #nodes=1
2015-08-25 14:05:59,356  INFO QSim:411 SIMULATION (NEW QSim) AT 08:00:00 : #Veh=59283 lost=0 simT=24720.0s realT=4s; (s/r): 6180.0
2015-08-25 14:05:59,357  INFO Gbl:52 used RAM: 630314672B = 615541kB = 601MB  free: 282995024B = 269MB  total: 913309696B = 871MB
2015-08-25 14:05:59,993  INFO QNetsimEngine:310 SIMULATION (QNetsimEngine) AT 09:00:00 : #links=27 #nodes=3
2015-08-25 14:05:59,993  INFO QSim:411 SIMULATION (NEW QSim) AT 09:00:00 : #Veh=58844 lost=0 simT=28320.0s realT=4s; (s/r): 7080.0
2015-08-25 14:05:59,993  INFO Gbl:52 used RAM: 723945616B = 706978kB = 690MB  free: 189364080B = 180MB  total: 913309696B = 871MB
2015-08-25 14:06:00,101  INFO EventsManagerImpl:134  event # 524288
2015-08-25 14:06:00,623  INFO QNetsimEngine:310 SIMULATION (QNetsimEngine) AT 10:00:00 : #links=26 #nodes=3
2015-08-25 14:06:00,624  INFO QSim:411 SIMULATION (NEW QSim) AT 10:00:00 : #Veh=57928 lost=0 simT=31920.0s realT=5s; (s/r): 6384.0
2015-08-25 14:06:00,624  INFO Gbl:52 used RAM: 218705672B = 213579kB = 208MB  free: 627495160B = 598MB  total: 846200832B = 807MB
2015-08-25 14:06:01,161  INFO QNetsimEngine:310 SIMULATION (QNetsimEngine) AT 11:00:00 : #links=21 #nodes=2
2015-08-25 14:06:01,162  INFO QSim:411 SIMULATION (NEW QSim) AT 11:00:00 : #Veh=56322 lost=0 simT=35520.0s realT=5s; (s/r): 7104.0
2015-08-25 14:06:01,162  INFO Gbl:52 used RAM: 292336720B = 285485kB = 278MB  free: 553864112B = 528MB  total: 846200832B = 807MB
2015-08-25 14:06:01,744  INFO QNetsimEngine:310 SIMULATION (QNetsimEngine) AT 12:00:00 : #links=20 #nodes=2
2015-08-25 14:06:01,745  INFO QSim:411 SIMULATION (NEW QSim) AT 12:00:00 : #Veh=53989 lost=0 simT=39120.0s realT=6s; (s/r): 6520.0
2015-08-25 14:06:01,745  INFO Gbl:52 used RAM: 376971760B = 368136kB = 359MB  free: 469229072B = 447MB  total: 846200832B = 807MB
2015-08-25 14:06:02,381  INFO QNetsimEngine:310 SIMULATION (QNetsimEngine) AT 13:00:00 : #links=25 #nodes=3
2015-08-25 14:06:02,381  INFO QSim:411 SIMULATION (NEW QSim) AT 13:00:00 : #Veh=50849 lost=0 simT=42720.0s realT=7s; (s/r): 6102.857142857143
2015-08-25 14:06:02,381  INFO Gbl:52 used RAM: 472643800B = 461566kB = 450MB  free: 373557032B = 356MB  total: 846200832B = 807MB
2015-08-25 14:06:02,626  INFO EventsManagerImpl:134  event # 1048576
2015-08-25 14:06:02,959  INFO QNetsimEngine:310 SIMULATION (QNetsimEngine) AT 14:00:00 : #links=21 #nodes=0
2015-08-25 14:06:02,959  INFO QSim:411 SIMULATION (NEW QSim) AT 14:00:00 : #Veh=48380 lost=0 simT=46320.0s realT=7s; (s/r): 6617.142857142857
2015-08-25 14:06:02,959  INFO Gbl:52 used RAM: 553780552B = 540801kB = 528MB  free: 292420280B = 278MB  total: 846200832B = 807MB
2015-08-25 14:06:03,699  INFO QNetsimEngine:310 SIMULATION (QNetsimEngine) AT 15:00:00 : #links=26 #nodes=3
2015-08-25 14:06:03,699  INFO QSim:411 SIMULATION (NEW QSim) AT 15:00:00 : #Veh=45648 lost=0 simT=49920.0s realT=8s; (s/r): 6240.0
2015-08-25 14:06:03,699  INFO Gbl:52 used RAM: 634917272B = 620036kB = 605MB  free: 211283560B = 201MB  total: 846200832B = 807MB
2015-08-25 14:06:04,295  INFO QNetsimEngine:310 SIMULATION (QNetsimEngine) AT 16:00:00 : #links=21 #nodes=2
2015-08-25 14:06:04,295  INFO QSim:411 SIMULATION (NEW QSim) AT 16:00:00 : #Veh=42291 lost=0 simT=53520.0s realT=9s; (s/r): 5946.666666666667
2015-08-25 14:06:04,295  INFO Gbl:52 used RAM: 716054080B = 699271kB = 682MB  free: 130146752B = 124MB  total: 846200832B = 807MB
2015-08-25 14:06:05,590  INFO QNetsimEngine:310 SIMULATION (QNetsimEngine) AT 17:00:00 : #links=29 #nodes=0
2015-08-25 14:06:05,590  INFO QSim:411 SIMULATION (NEW QSim) AT 17:00:00 : #Veh=37324 lost=0 simT=57120.0s realT=10s; (s/r): 5712.0
2015-08-25 14:06:05,590  INFO Gbl:52 used RAM: 273450256B = 267041kB = 260MB  free: 724269808B = 690MB  total: 997720064B = 951MB
2015-08-25 14:06:06,565  INFO QNetsimEngine:310 SIMULATION (QNetsimEngine) AT 18:00:00 : #links=29 #nodes=1
2015-08-25 14:06:06,566  INFO QSim:411 SIMULATION (NEW QSim) AT 18:00:00 : #Veh=29010 lost=0 simT=60720.0s realT=11s; (s/r): 5520.0
2015-08-25 14:06:06,566  INFO Gbl:52 used RAM: 407232584B = 397688kB = 388MB  free: 590487480B = 563MB  total: 997720064B = 951MB
2015-08-25 14:06:07,465  INFO QNetsimEngine:310 SIMULATION (QNetsimEngine) AT 19:00:00 : #links=32 #nodes=1
2015-08-25 14:06:07,465  INFO QSim:411 SIMULATION (NEW QSim) AT 19:00:00 : #Veh=19512 lost=0 simT=64320.0s realT=12s; (s/r): 5360.0
2015-08-25 14:06:07,465  INFO Gbl:52 used RAM: 543819232B = 531073kB = 518MB  free: 453900832B = 432MB  total: 997720064B = 951MB
2015-08-25 14:06:07,998  INFO QNetsimEngine:310 SIMULATION (QNetsimEngine) AT 20:00:00 : #links=22 #nodes=1
2015-08-25 14:06:07,998  INFO QSim:411 SIMULATION (NEW QSim) AT 20:00:00 : #Veh=13110 lost=0 simT=67920.0s realT=12s; (s/r): 5660.0
2015-08-25 14:06:07,998  INFO Gbl:52 used RAM: 616898320B = 602439kB = 588MB  free: 380821744B = 363MB  total: 997720064B = 951MB
2015-08-25 14:06:08,386  INFO QNetsimEngine:310 SIMULATION (QNetsimEngine) AT 21:00:00 : #links=24 #nodes=1
2015-08-25 14:06:08,387  INFO QSim:411 SIMULATION (NEW QSim) AT 21:00:00 : #Veh=8374 lost=0 simT=71520.0s realT=13s; (s/r): 5501.538461538462
2015-08-25 14:06:08,387  INFO Gbl:52 used RAM: 667211216B = 651573kB = 636MB  free: 330508848B = 315MB  total: 997720064B = 951MB
2015-08-25 14:06:08,466  INFO EventsManagerImpl:134  event # 2097152
2015-08-25 14:06:08,788  INFO QNetsimEngine:310 SIMULATION (QNetsimEngine) AT 22:00:00 : #links=15 #nodes=2
2015-08-25 14:06:08,788  INFO QSim:411 SIMULATION (NEW QSim) AT 22:00:00 : #Veh=2999 lost=0 simT=75120.0s realT=13s; (s/r): 5778.461538461538
2015-08-25 14:06:08,789  INFO Gbl:52 used RAM: 726047816B = 709031kB = 692MB  free: 271672248B = 259MB  total: 997720064B = 951MB
2015-08-25 14:06:08,996  INFO QNetsimEngine:310 SIMULATION (QNetsimEngine) AT 23:00:00 : #links=10 #nodes=0
2015-08-25 14:06:08,996  INFO QSim:411 SIMULATION (NEW QSim) AT 23:00:00 : #Veh=120 lost=0 simT=78720.0s realT=13s; (s/r): 6055.384615384615
2015-08-25 14:06:08,996  INFO Gbl:52 used RAM: 750680368B = 733086kB = 715MB  free: 247039696B = 235MB  total: 997720064B = 951MB
2015-08-25 14:06:09,042  INFO QNetsimEngine:310 SIMULATION (QNetsimEngine) AT 24:00:00 : #links=0 #nodes=0
2015-08-25 14:06:09,043  INFO QSim:411 SIMULATION (NEW QSim) AT 24:00:00 : #Veh=14 lost=0 simT=82320.0s realT=13s; (s/r): 6332.307692307692
2015-08-25 14:06:09,043  INFO Gbl:52 used RAM: 756399288B = 738671kB = 721MB  free: 241320776B = 230MB  total: 997720064B = 951MB
2015-08-25 14:06:09,076  INFO Gbl:185 Thread performance: Thread=QNetsimEngineRunner_0  cpu-time=2.9328188sec
2015-08-25 14:06:09,112  INFO AbstractController$7:289 ### ITERATION 0 fires after mobsim event
2015-08-25 14:06:09,113  INFO ControlerListenerManager:244 calling notifyAfterMobsim on org.matsim.core.controler.corelisteners.EventsHandling
2015-08-25 14:06:09,113  INFO ControlerListenerManager:249 calling notifyAfterMobsim on org.matsim.analysis.LegTimesControlerListener
2015-08-25 14:06:09,113  INFO Gbl:185 Thread performance: Thread=class org.matsim.core.events.SimStepParallelEventsManagerImpl$ProcessEventsRunnable0  cpu-time=10.1556651sec
2015-08-25 14:06:09,123  INFO LegTimesControlerListener:50 [0] average trip (probably: leg) duration is: 246 seconds = 00:04:06
2015-08-25 14:06:09,123  INFO ControlerListenerManager:252 [it.0] all ControlerAfterMobsimListeners called.
2015-08-25 14:06:09,162  INFO AbstractController$5:226 ### ITERATION 0 fires scoring event
2015-08-25 14:06:09,179  INFO ControlerListenerManager:184 calling notifyScoring on org.matsim.core.controler.corelisteners.PlansScoring
2015-08-25 14:06:09,343  INFO EventsToScore:192 it: 0 msaStart: null
2015-08-25 14:06:09,379  INFO ControlerListenerManager:195 [it.0] all ControlerScoringListeners called.
2015-08-25 14:06:09,407  INFO AbstractController$6:234 ### ITERATION 0 fires iteration end event
2015-08-25 14:06:09,407  INFO ControlerListenerManager:161 calling notifyIterationEnds on org.matsim.core.controler.corelisteners.EventsHandling
2015-08-25 14:06:09,408  INFO EventsManagerImpl:161 removing Event-Handler: org.matsim.core.events.algorithms.EventWriterXML
2015-08-25 14:06:09,408  INFO EventsManagerImpl:161 removing Event-Handler: org.matsim.core.events.algorithms.EventWriterXML
2015-08-25 14:06:09,409  INFO ControlerListenerManager:161 calling notifyIterationEnds on org.matsim.core.controler.corelisteners.PlansScoring
2015-08-25 14:06:09,409  INFO EventsManagerImpl:161 removing Event-Handler: org.matsim.core.scoring.EventsToScore
2015-08-25 14:06:09,409  INFO EventsManagerImpl:161 removing Event-Handler: org.matsim.core.scoring.EventsToScore
2015-08-25 14:06:09,429  INFO TravelDistanceStats:122 [TravelDistanceStats] using 2 thread(s).
2015-08-25 14:06:09,558  INFO TravelDistanceStats:135 [TravelDistanceStats] all threads finished.
2015-08-25 14:06:09,558  INFO TravelDistanceStats:155 -- average of the average leg distance per plan (executed plans only): 1777.8679122012134
2015-08-25 14:06:09,559  INFO TravelDistanceStats:156 (TravelDistanceStats takes an average over all legs where the simulation reports travelled distances. These are car legs, pt legs,
2015-08-25 14:06:09,559  INFO TravelDistanceStats:157 (and teleported legs whose route contains a distance.)
2015-08-25 14:06:09,559  INFO ControlerListenerManager:168 calling notifyIterationEnds on org.matsim.counts.CountsControlerListener
2015-08-25 14:06:09,559  INFO ControlerListenerManager:168 calling notifyIterationEnds on org.matsim.analysis.ScoreStatsControlerListener
2015-08-25 14:06:09,584  INFO ScoreStatsControlerListener:187 -- avg. score of the executed plan of each agent: 4.4939104402562196
2015-08-25 14:06:09,584  INFO ScoreStatsControlerListener:188 -- avg. score of the worst plan of each agent: 4.4939104402562196
2015-08-25 14:06:09,584  INFO ScoreStatsControlerListener:189 -- avg. of the avg. plan score per agent: 4.4939104402562196
2015-08-25 14:06:09,584  INFO ScoreStatsControlerListener:190 -- avg. score of the best plan of each agent: 4.4939104402562196
2015-08-25 14:06:09,584  INFO ControlerListenerManager:168 calling notifyIterationEnds on org.matsim.core.controler.corelisteners.LegHistogramListener
2015-08-25 14:06:09,599  INFO LegHistogramListener:81 number of legs:	361621	100%
2015-08-25 14:06:09,599  INFO LegHistogramListener:88 number of car legs:	2003	0.5538948235860196%
2015-08-25 14:06:09,599  INFO LegHistogramListener:90 (car legs include legs by pt vehicles)
2015-08-25 14:06:09,599  INFO LegHistogramListener:88 number of pt legs:	106191	29.365274693670997%
2015-08-25 14:06:09,599  INFO LegHistogramListener:88 number of transit_walk legs:	253427	70.08083048274298%
2015-08-25 14:06:12,833  INFO ControlerListenerManager:168 calling notifyIterationEnds on org.matsim.core.controler.corelisteners.LinkStatsControlerListener
2015-08-25 14:06:13,025  INFO ControlerListenerManager:172 [it.0] all ControlerIterationEndsListeners called.
2015-08-25 14:06:13,389  INFO AbstractController:244 ### ITERATION 0 ENDS
2015-08-25 14:06:13,390  INFO AbstractController:245 ###################################################
2015-08-25 14:06:13,390  INFO AbstractController:200 ###################################################
2015-08-25 14:06:13,390  INFO AbstractController:201 ### ITERATION 1 BEGINS
2015-08-25 14:06:13,390  INFO ControlerListenerManager:141 calling notifyIterationStarts on org.matsim.core.controler.corelisteners.PlansScoring
2015-08-25 14:06:13,479  INFO EventsManagerImpl:144 adding Event-Handler: org.matsim.core.scoring.EventsToScore
2015-08-25 14:06:13,479  INFO EventsManagerImpl:148   org.matsim.core.events.handler.BasicEventHandler
2015-08-25 14:06:13,479  INFO EventsManagerImpl:207     > org.matsim.api.core.v01.events.Event
2015-08-25 14:06:13,479  INFO EventsManagerImpl:156 
2015-08-25 14:06:13,480  INFO EventsManagerImpl:144 adding Event-Handler: org.matsim.core.scoring.EventsToScore
2015-08-25 14:06:13,480  INFO EventsManagerImpl:148   org.matsim.core.events.handler.BasicEventHandler
2015-08-25 14:06:13,480  INFO EventsManagerImpl:207     > org.matsim.api.core.v01.events.Event
2015-08-25 14:06:13,480  INFO EventsManagerImpl:156 
2015-08-25 14:06:13,480  INFO ControlerListenerManager:146 calling notifyIterationStarts on org.matsim.core.controler.corelisteners.LegHistogramListener
2015-08-25 14:06:13,480  INFO ControlerListenerManager:146 calling notifyIterationStarts on org.matsim.core.controler.corelisteners.LinkStatsControlerListener
2015-08-25 14:06:13,480  INFO CalcLinkStats:148  resetting `count' to zero.  This info is here since we want to check when this is happening during normal simulation runs.  kai, jan'11
2015-08-25 14:06:13,483  INFO ControlerListenerManager:149 [it.1] all ControlerIterationStartsListeners called.
2015-08-25 14:06:13,544  INFO ControlerListenerManager:206 calling notifyReplanning on org.matsim.core.controler.corelisteners.PlansReplanning
2015-08-25 14:06:13,673  INFO GenericPlanStrategyImpl:125 Plan-Strategy finished, 41641 plans handled. Strategy: BestPlanSelector
2015-08-25 14:06:13,673  INFO AbstractMultithreadedModule:140 [PlanRouter] starting 2 threads, handling 17846 plans
2015-08-25 14:06:13,676  INFO Counter:51 [PlanRouter] handled plan # 1
2015-08-25 14:06:13,676  INFO Counter:51 [PlanRouter] handled plan # 2
2015-08-25 14:06:13,677  INFO Counter:51 [PlanRouter] handled plan # 4
2015-08-25 14:06:13,678  INFO Counter:51 [PlanRouter] handled plan # 8
2015-08-25 14:06:13,681  INFO Counter:51 [PlanRouter] handled plan # 16
2015-08-25 14:06:13,685  INFO Counter:51 [PlanRouter] handled plan # 32
2015-08-25 14:06:13,690  INFO Counter:51 [PlanRouter] handled plan # 64
2015-08-25 14:06:13,699  INFO Counter:51 [PlanRouter] handled plan # 128
2015-08-25 14:06:13,717  INFO Counter:51 [PlanRouter] handled plan # 256
2015-08-25 14:06:13,741  INFO Counter:51 [PlanRouter] handled plan # 512
2015-08-25 14:06:13,776  INFO Counter:51 [PlanRouter] handled plan # 1024
2015-08-25 14:06:13,841  INFO Counter:51 [PlanRouter] handled plan # 2048
2015-08-25 14:06:13,950  INFO Counter:51 [PlanRouter] handled plan # 4096
2015-08-25 14:06:14,110  INFO Counter:51 [PlanRouter] handled plan # 8192
2015-08-25 14:06:14,387  INFO Counter:51 [PlanRouter] handled plan # 16384
2015-08-25 14:06:14,431  INFO AbstractMultithreadedModule:155 [PlanRouter] all 2 threads finished.
2015-08-25 14:06:14,431  INFO GenericPlanStrategyImpl:125 Plan-Strategy finished, 17846 plans handled. Strategy: RandomPlanSelector_ReRoute
2015-08-25 14:06:14,432  INFO ControlerListenerManager:214 [it.1] all ControlerReplanningListeners called.
2015-08-25 14:06:14,432  INFO ControlerListenerManager:225 calling notifyBeforeMobsim on org.matsim.core.controler.corelisteners.EventsHandling
2015-08-25 14:06:14,432  INFO EventsManagerImpl:170 resetting Event-Handlers
2015-08-25 14:06:14,432  INFO EventsManagerImpl:177   org.matsim.core.trafficmonitoring.TravelTimeCalculator
2015-08-25 14:06:14,435  INFO EventsManagerImpl:177   org.matsim.analysis.VolumesAnalyzer
2015-08-25 14:06:14,435  INFO EventsManagerImpl:177   org.matsim.analysis.LegHistogram
2015-08-25 14:06:14,435  INFO EventsManagerImpl:177   org.matsim.analysis.CalcLegTimes
2015-08-25 14:06:14,435  INFO EventsManagerImpl:177   org.matsim.core.scoring.EventsToScore
2015-08-25 14:06:14,504  INFO ControlerListenerManager:225 calling notifyBeforeMobsim on org.matsim.core.controler.corelisteners.PlansDumping
2015-08-25 14:06:14,504  INFO PlansDumping:77 dumping plans...
[...]
2015-08-25 14:10:50,635  INFO EventsManagerImpl:170 resetting Event-Handlers
2015-08-25 14:10:50,635  INFO EventsManagerImpl:177   org.matsim.core.trafficmonitoring.TravelTimeCalculator
2015-08-25 14:10:50,636  INFO EventsManagerImpl:177   org.matsim.analysis.VolumesAnalyzer
2015-08-25 14:10:50,636  INFO EventsManagerImpl:177   org.matsim.analysis.LegHistogram
2015-08-25 14:10:50,636  INFO EventsManagerImpl:177   org.matsim.analysis.CalcLegTimes
2015-08-25 14:10:50,636  INFO EventsManagerImpl:177   org.matsim.core.scoring.EventsToScore
2015-08-25 14:10:50,702  INFO EventsManagerImpl:144 adding Event-Handler: org.matsim.core.events.algorithms.EventWriterXML
2015-08-25 14:10:50,702  INFO EventsManagerImpl:148   org.matsim.core.events.algorithms.EventWriter
2015-08-25 14:10:50,702  INFO EventsManagerImpl:148   org.matsim.core.events.handler.BasicEventHandler
2015-08-25 14:10:50,702  INFO EventsManagerImpl:207     > org.matsim.api.core.v01.events.Event
2015-08-25 14:10:50,702  INFO EventsManagerImpl:156 
2015-08-25 14:10:50,702  INFO EventsManagerImpl:144 adding Event-Handler: org.matsim.core.events.algorithms.EventWriterXML
2015-08-25 14:10:50,702  INFO EventsManagerImpl:148   org.matsim.core.events.algorithms.EventWriter
2015-08-25 14:10:50,702  INFO EventsManagerImpl:148   org.matsim.core.events.handler.BasicEventHandler
2015-08-25 14:10:50,702  INFO EventsManagerImpl:207     > org.matsim.api.core.v01.events.Event
2015-08-25 14:10:50,703  INFO EventsManagerImpl:156 
2015-08-25 14:10:50,703  INFO ControlerListenerManager:225 calling notifyBeforeMobsim on org.matsim.core.controler.corelisteners.PlansDumping
2015-08-25 14:10:50,703  INFO PlansDumping:77 dumping plans...
2015-08-25 14:10:50,719  INFO Counter:51 [PopulationWriter] dumped person # 1
2015-08-25 14:10:50,719  INFO Counter:51 [PopulationWriter] dumped person # 2
2015-08-25 14:10:50,719  INFO Counter:51 [PopulationWriter] dumped person # 4
2015-08-25 14:10:50,720  INFO Counter:51 [PopulationWriter] dumped person # 8
2015-08-25 14:10:50,721  INFO Counter:51 [PopulationWriter] dumped person # 16
2015-08-25 14:10:50,723  INFO Counter:51 [PopulationWriter] dumped person # 32
2015-08-25 14:10:50,727  INFO Counter:51 [PopulationWriter] dumped person # 64
2015-08-25 14:10:50,737  INFO Counter:51 [PopulationWriter] dumped person # 128
2015-08-25 14:10:50,756  INFO Counter:51 [PopulationWriter] dumped person # 256
2015-08-25 14:10:50,793  INFO Counter:51 [PopulationWriter] dumped person # 512
2015-08-25 14:10:50,868  INFO Counter:51 [PopulationWriter] dumped person # 1024
2015-08-25 14:10:51,017  INFO Counter:51 [PopulationWriter] dumped person # 2048
2015-08-25 14:10:51,321  INFO Counter:51 [PopulationWriter] dumped person # 4096
2015-08-25 14:10:51,955  INFO Counter:51 [PopulationWriter] dumped person # 8192
2015-08-25 14:10:53,148  INFO Counter:51 [PopulationWriter] dumped person # 16384
2015-08-25 14:10:55,586  INFO Counter:51 [PopulationWriter] dumped person # 32768
2015-08-25 14:10:59,002  INFO PopulationWriter:95 Population written to: ./output/ITERS/it.20/20.plans.xml.gz
2015-08-25 14:10:59,002  INFO Counter:57 [PopulationWriter] dumped person # 59487
2015-08-25 14:10:59,003  INFO PlansDumping:79 finished plans dump.
2015-08-25 14:10:59,003  INFO ControlerListenerManager:230 calling notifyBeforeMobsim on org.matsim.population.VspPlansCleaner
2015-08-25 14:10:59,068  INFO ControlerListenerManager:233 [it.20] all ControlerBeforeMobsimListeners called.
2015-08-25 14:10:59,070  INFO ReconstructingUmlaufBuilder:112 Generating UmlaufStuecke
2015-08-25 14:10:59,210  INFO QNetsimEngine:466 Assigned 2020 nodes and 2667 links to QSimEngineRunner #0
2015-08-25 14:10:59,232  INFO QNetsimEngine:310 SIMULATION (QNetsimEngine) AT 01:08:00 : #links=0 #nodes=0
2015-08-25 14:10:59,233  INFO QSim:411 SIMULATION (NEW QSim) AT 01:08:00 : #Veh=59564 lost=0 simT=0.0s realT=0s; (s/r): 0.0
2015-08-25 14:10:59,233  INFO Gbl:52 used RAM: 631095456B = 616304kB = 601MB  free: 966410080B = 921MB  total: 1597505536B = 1523MB
2015-08-25 14:10:59,263  INFO QNetsimEngine:310 SIMULATION (QNetsimEngine) AT 02:00:00 : #links=0 #nodes=0
2015-08-25 14:10:59,264  INFO QSim:411 SIMULATION (NEW QSim) AT 02:00:00 : #Veh=59564 lost=0 simT=3120.0s realT=0s; (s/r): Infinity
2015-08-25 14:10:59,264  INFO Gbl:52 used RAM: 631095456B = 616304kB = 601MB  free: 966410080B = 921MB  total: 1597505536B = 1523MB
2015-08-25 14:10:59,299  INFO QNetsimEngine:310 SIMULATION (QNetsimEngine) AT 03:00:00 : #links=0 #nodes=0
2015-08-25 14:10:59,299  INFO QSim:411 SIMULATION (NEW QSim) AT 03:00:00 : #Veh=59564 lost=0 simT=6720.0s realT=0s; (s/r): Infinity
2015-08-25 14:10:59,299  INFO Gbl:52 used RAM: 631095456B = 616304kB = 601MB  free: 966410080B = 921MB  total: 1597505536B = 1523MB
2015-08-25 14:10:59,334  INFO QNetsimEngine:310 SIMULATION (QNetsimEngine) AT 04:00:00 : #links=0 #nodes=0
2015-08-25 14:10:59,334  INFO QSim:411 SIMULATION (NEW QSim) AT 04:00:00 : #Veh=59564 lost=0 simT=10320.0s realT=0s; (s/r): Infinity
2015-08-25 14:10:59,334  INFO Gbl:52 used RAM: 631095456B = 616304kB = 601MB  free: 966410080B = 921MB  total: 1597505536B = 1523MB
2015-08-25 14:10:59,377  INFO QNetsimEngine:310 SIMULATION (QNetsimEngine) AT 05:00:00 : #links=3 #nodes=0
2015-08-25 14:10:59,377  INFO QSim:411 SIMULATION (NEW QSim) AT 05:00:00 : #Veh=59560 lost=0 simT=13920.0s realT=0s; (s/r): Infinity
2015-08-25 14:10:59,377  INFO Gbl:52 used RAM: 639384136B = 624398kB = 609MB  free: 958121400B = 913MB  total: 1597505536B = 1523MB
2015-08-25 14:10:59,619  INFO QNetsimEngine:310 SIMULATION (QNetsimEngine) AT 06:00:00 : #links=21 #nodes=3
2015-08-25 14:10:59,619  INFO QSim:411 SIMULATION (NEW QSim) AT 06:00:00 : #Veh=59542 lost=0 simT=17520.0s realT=0s; (s/r): Infinity
2015-08-25 14:10:59,619  INFO Gbl:52 used RAM: 669258816B = 653573kB = 638MB  free: 928246720B = 885MB  total: 1597505536B = 1523MB
2015-08-25 14:11:00,339  INFO QNetsimEngine:310 SIMULATION (QNetsimEngine) AT 07:00:00 : #links=33 #nodes=3
2015-08-25 14:11:00,339  INFO QSim:411 SIMULATION (NEW QSim) AT 07:00:00 : #Veh=59452 lost=0 simT=21120.0s realT=1s; (s/r): 21120.0
2015-08-25 14:11:00,340  INFO Gbl:52 used RAM: 779727832B = 761452kB = 743MB  free: 817777704B = 779MB  total: 1597505536B = 1523MB
2015-08-25 14:11:01,165  INFO QNetsimEngine:310 SIMULATION (QNetsimEngine) AT 08:00:00 : #links=33 #nodes=1
2015-08-25 14:11:01,165  INFO QSim:411 SIMULATION (NEW QSim) AT 08:00:00 : #Veh=59283 lost=0 simT=24720.0s realT=2s; (s/r): 12360.0
2015-08-25 14:11:01,165  INFO Gbl:52 used RAM: 891866536B = 870963kB = 850MB  free: 705639000B = 672MB  total: 1597505536B = 1523MB
2015-08-25 14:11:01,874  INFO QNetsimEngine:310 SIMULATION (QNetsimEngine) AT 09:00:00 : #links=27 #nodes=3
2015-08-25 14:11:01,875  INFO QSim:411 SIMULATION (NEW QSim) AT 09:00:00 : #Veh=58844 lost=0 simT=28320.0s realT=2s; (s/r): 14160.0
2015-08-25 14:11:01,875  INFO Gbl:52 used RAM: 602633320B = 588509kB = 574MB  free: 998542232B = 952MB  total: 1601175552B = 1527MB
2015-08-25 14:11:02,444  INFO QNetsimEngine:310 SIMULATION (QNetsimEngine) AT 10:00:00 : #links=26 #nodes=3
2015-08-25 14:11:02,444  INFO QSim:411 SIMULATION (NEW QSim) AT 10:00:00 : #Veh=57928 lost=0 simT=31920.0s realT=3s; (s/r): 10640.0
2015-08-25 14:11:02,444  INFO Gbl:52 used RAM: 686944376B = 670844kB = 655MB  free: 914231176B = 871MB  total: 1601175552B = 1527MB
2015-08-25 14:11:02,992  INFO QNetsimEngine:310 SIMULATION (QNetsimEngine) AT 11:00:00 : #links=19 #nodes=1
2015-08-25 14:11:02,992  INFO QSim:411 SIMULATION (NEW QSim) AT 11:00:00 : #Veh=56322 lost=0 simT=35520.0s realT=3s; (s/r): 11840.0
2015-08-25 14:11:02,993  INFO Gbl:52 used RAM: 771255424B = 753179kB = 735MB  free: 829920128B = 791MB  total: 1601175552B = 1527MB
2015-08-25 14:11:03,559  INFO QNetsimEngine:310 SIMULATION (QNetsimEngine) AT 12:00:00 : #links=20 #nodes=2
2015-08-25 14:11:03,560  INFO QSim:411 SIMULATION (NEW QSim) AT 12:00:00 : #Veh=53989 lost=0 simT=39120.0s realT=4s; (s/r): 9780.0
2015-08-25 14:11:03,560  INFO Gbl:52 used RAM: 852610504B = 832627kB = 813MB  free: 748565048B = 713MB  total: 1601175552B = 1527MB
2015-08-25 14:11:04,183  INFO QNetsimEngine:310 SIMULATION (QNetsimEngine) AT 13:00:00 : #links=25 #nodes=3
2015-08-25 14:11:04,184  INFO QSim:411 SIMULATION (NEW QSim) AT 13:00:00 : #Veh=50849 lost=0 simT=42720.0s realT=5s; (s/r): 8544.0
2015-08-25 14:11:04,184  INFO Gbl:52 used RAM: 947078872B = 924881kB = 903MB  free: 654096680B = 623MB  total: 1601175552B = 1527MB
2015-08-25 14:11:04,792  INFO QNetsimEngine:310 SIMULATION (QNetsimEngine) AT 14:00:00 : #links=21 #nodes=0
2015-08-25 14:11:04,793  INFO QSim:411 SIMULATION (NEW QSim) AT 14:00:00 : #Veh=48380 lost=0 simT=46320.0s realT=5s; (s/r): 9264.0
2015-08-25 14:11:04,793  INFO Gbl:52 used RAM: 628098592B = 613377kB = 599MB  free: 969406944B = 924MB  total: 1597505536B = 1523MB
2015-08-25 14:11:05,359  INFO QNetsimEngine:310 SIMULATION (QNetsimEngine) AT 15:00:00 : #links=26 #nodes=3
2015-08-25 14:11:05,359  INFO QSim:411 SIMULATION (NEW QSim) AT 15:00:00 : #Veh=45648 lost=0 simT=49920.0s realT=6s; (s/r): 8320.0
2015-08-25 14:11:05,359  INFO Gbl:52 used RAM: 712549848B = 695849kB = 679MB  free: 884955688B = 843MB  total: 1597505536B = 1523MB
2015-08-25 14:11:05,916  INFO QNetsimEngine:310 SIMULATION (QNetsimEngine) AT 16:00:00 : #links=21 #nodes=2
2015-08-25 14:11:05,916  INFO QSim:411 SIMULATION (NEW QSim) AT 16:00:00 : #Veh=42291 lost=0 simT=53520.0s realT=6s; (s/r): 8920.0
2015-08-25 14:11:05,916  INFO Gbl:52 used RAM: 796476976B = 777809kB = 759MB  free: 801028560B = 763MB  total: 1597505536B = 1523MB
2015-08-25 14:11:06,553  INFO QNetsimEngine:310 SIMULATION (QNetsimEngine) AT 17:00:00 : #links=29 #nodes=0
2015-08-25 14:11:06,554  INFO QSim:411 SIMULATION (NEW QSim) AT 17:00:00 : #Veh=37324 lost=0 simT=57120.0s realT=7s; (s/r): 8160.0
2015-08-25 14:11:06,554  INFO Gbl:52 used RAM: 890705720B = 869829kB = 849MB  free: 706799816B = 674MB  total: 1597505536B = 1523MB
2015-08-25 14:11:07,524  INFO QNetsimEngine:310 SIMULATION (QNetsimEngine) AT 18:00:00 : #links=29 #nodes=1
2015-08-25 14:11:07,524  INFO QSim:411 SIMULATION (NEW QSim) AT 18:00:00 : #Veh=29010 lost=0 simT=60720.0s realT=8s; (s/r): 7590.0
2015-08-25 14:11:07,524  INFO Gbl:52 used RAM: 615418984B = 600995kB = 586MB  free: 984183704B = 938MB  total: 1599602688B = 1525MB
2015-08-25 14:11:08,422  INFO QNetsimEngine:310 SIMULATION (QNetsimEngine) AT 19:00:00 : #links=32 #nodes=1
2015-08-25 14:11:08,422  INFO QSim:411 SIMULATION (NEW QSim) AT 19:00:00 : #Veh=19512 lost=0 simT=64320.0s realT=9s; (s/r): 7146.666666666667
2015-08-25 14:11:08,422  INFO Gbl:52 used RAM: 750473512B = 732884kB = 715MB  free: 849129176B = 809MB  total: 1599602688B = 1525MB
2015-08-25 14:11:08,927  INFO QNetsimEngine:310 SIMULATION (QNetsimEngine) AT 20:00:00 : #links=22 #nodes=1
2015-08-25 14:11:08,927  INFO QSim:411 SIMULATION (NEW QSim) AT 20:00:00 : #Veh=13110 lost=0 simT=67920.0s realT=9s; (s/r): 7546.666666666667
2015-08-25 14:11:08,928  INFO Gbl:52 used RAM: 822301288B = 803028kB = 784MB  free: 777301400B = 741MB  total: 1599602688B = 1525MB
2015-08-25 14:11:09,303  INFO QNetsimEngine:310 SIMULATION (QNetsimEngine) AT 21:00:00 : #links=24 #nodes=1
2015-08-25 14:11:09,303  INFO QSim:411 SIMULATION (NEW QSim) AT 21:00:00 : #Veh=8374 lost=0 simT=71520.0s realT=10s; (s/r): 7152.0
2015-08-25 14:11:09,303  INFO Gbl:52 used RAM: 875487592B = 854968kB = 834MB  free: 724115096B = 690MB  total: 1599602688B = 1525MB
2015-08-25 14:11:09,725  INFO QNetsimEngine:310 SIMULATION (QNetsimEngine) AT 22:00:00 : #links=15 #nodes=2
2015-08-25 14:11:09,725  INFO QSim:411 SIMULATION (NEW QSim) AT 22:00:00 : #Veh=2999 lost=0 simT=75120.0s realT=10s; (s/r): 7512.0
2015-08-25 14:11:09,725  INFO Gbl:52 used RAM: 933694304B = 911810kB = 890MB  free: 665908384B = 635MB  total: 1599602688B = 1525MB
2015-08-25 14:11:09,939  INFO QNetsimEngine:310 SIMULATION (QNetsimEngine) AT 23:00:00 : #links=10 #nodes=0
2015-08-25 14:11:09,939  INFO QSim:411 SIMULATION (NEW QSim) AT 23:00:00 : #Veh=120 lost=0 simT=78720.0s realT=10s; (s/r): 7872.0
2015-08-25 14:11:09,939  INFO Gbl:52 used RAM: 960287552B = 937780kB = 915MB  free: 639315136B = 609MB  total: 1599602688B = 1525MB
2015-08-25 14:11:09,983  INFO QNetsimEngine:310 SIMULATION (QNetsimEngine) AT 24:00:00 : #links=0 #nodes=0
2015-08-25 14:11:09,983  INFO QSim:411 SIMULATION (NEW QSim) AT 24:00:00 : #Veh=14 lost=0 simT=82320.0s realT=10s; (s/r): 8232.0
2015-08-25 14:11:09,983  INFO Gbl:52 used RAM: 960287552B = 937780kB = 915MB  free: 639315136B = 609MB  total: 1599602688B = 1525MB
2015-08-25 14:11:09,983  INFO Gbl:185 Thread performance: Thread=QNetsimEngineRunner_0  cpu-time=2.028013sec
2015-08-25 14:11:09,984  INFO AbstractController$7:289 ### ITERATION 20 fires after mobsim event
2015-08-25 14:11:09,984  INFO ControlerListenerManager:244 calling notifyAfterMobsim on org.matsim.core.controler.corelisteners.EventsHandling
2015-08-25 14:11:09,984  INFO Gbl:185 Thread performance: Thread=class org.matsim.core.events.SimStepParallelEventsManagerImpl$ProcessEventsRunnable0  cpu-time=9.7656626sec
2015-08-25 14:11:09,984  INFO ControlerListenerManager:249 calling notifyAfterMobsim on org.matsim.analysis.LegTimesControlerListener
2015-08-25 14:11:09,994  INFO LegTimesControlerListener:50 [20] average trip (probably: leg) duration is: 246 seconds = 00:04:06
2015-08-25 14:11:09,994  INFO ControlerListenerManager:252 [it.20] all ControlerAfterMobsimListeners called.
2015-08-25 14:11:09,994  INFO AbstractController$5:226 ### ITERATION 20 fires scoring event
2015-08-25 14:11:09,994  INFO ControlerListenerManager:184 calling notifyScoring on org.matsim.core.controler.corelisteners.PlansScoring
2015-08-25 14:11:10,133  INFO EventsToScore:192 it: 20 msaStart: null
2015-08-25 14:11:10,159  INFO ControlerListenerManager:195 [it.20] all ControlerScoringListeners called.
2015-08-25 14:11:10,159  INFO AbstractController$6:234 ### ITERATION 20 fires iteration end event
2015-08-25 14:11:10,159  INFO ControlerListenerManager:161 calling notifyIterationEnds on org.matsim.core.controler.corelisteners.EventsHandling
2015-08-25 14:11:10,160  INFO EventsManagerImpl:161 removing Event-Handler: org.matsim.core.events.algorithms.EventWriterXML
2015-08-25 14:11:10,160  INFO EventsManagerImpl:161 removing Event-Handler: org.matsim.core.events.algorithms.EventWriterXML
2015-08-25 14:11:10,160  INFO ControlerListenerManager:161 calling notifyIterationEnds on org.matsim.core.controler.corelisteners.PlansScoring
2015-08-25 14:11:10,160  INFO EventsManagerImpl:161 removing Event-Handler: org.matsim.core.scoring.EventsToScore
2015-08-25 14:11:10,160  INFO EventsManagerImpl:161 removing Event-Handler: org.matsim.core.scoring.EventsToScore
2015-08-25 14:11:10,161  INFO TravelDistanceStats:122 [TravelDistanceStats] using 2 thread(s).
2015-08-25 14:11:10,282  INFO TravelDistanceStats:135 [TravelDistanceStats] all threads finished.
2015-08-25 14:11:10,283  INFO TravelDistanceStats:155 -- average of the average leg distance per plan (executed plans only): 1777.8679122012134
2015-08-25 14:11:10,283  INFO TravelDistanceStats:156 (TravelDistanceStats takes an average over all legs where the simulation reports travelled distances. These are car legs, pt legs,
2015-08-25 14:11:10,283  INFO TravelDistanceStats:157 (and teleported legs whose route contains a distance.)
2015-08-25 14:11:10,344  INFO ControlerListenerManager:168 calling notifyIterationEnds on org.matsim.counts.CountsControlerListener
2015-08-25 14:11:10,344  INFO ControlerListenerManager:168 calling notifyIterationEnds on org.matsim.analysis.ScoreStatsControlerListener
2015-08-25 14:11:10,357  INFO ScoreStatsControlerListener:187 -- avg. score of the executed plan of each agent: 4.49431636488553
2015-08-25 14:11:10,358  INFO ScoreStatsControlerListener:188 -- avg. score of the worst plan of each agent: 4.492235588419601
2015-08-25 14:11:10,358  INFO ScoreStatsControlerListener:189 -- avg. of the avg. plan score per agent: 4.493443230173008
2015-08-25 14:11:10,358  INFO ScoreStatsControlerListener:190 -- avg. score of the best plan of each agent: 4.495270018725743
2015-08-25 14:11:10,418  INFO ControlerListenerManager:168 calling notifyIterationEnds on org.matsim.core.controler.corelisteners.LegHistogramListener
2015-08-25 14:11:10,428  INFO LegHistogramListener:81 number of legs:	361621	100%
2015-08-25 14:11:10,429  INFO LegHistogramListener:88 number of car legs:	2003	0.5538948235860196%
2015-08-25 14:11:10,429  INFO LegHistogramListener:90 (car legs include legs by pt vehicles)
2015-08-25 14:11:10,429  INFO LegHistogramListener:88 number of pt legs:	106191	29.365274693670997%
2015-08-25 14:11:10,429  INFO LegHistogramListener:88 number of transit_walk legs:	253427	70.08083048274298%
2015-08-25 14:11:10,958  INFO ControlerListenerManager:168 calling notifyIterationEnds on org.matsim.core.controler.corelisteners.LinkStatsControlerListener
2015-08-25 14:11:11,106  INFO ControlerListenerManager:172 [it.20] all ControlerIterationEndsListeners called.
2015-08-25 14:11:11,200  INFO AbstractController:244 ### ITERATION 20 ENDS
2015-08-25 14:11:11,200  INFO AbstractController:245 ###################################################
2015-08-25 14:11:11,200  INFO AbstractController:174 S H U T D O W N   ---   start shutdown.
2015-08-25 14:11:11,201  INFO ControlerListenerManager:122 calling notifyShutdown on org.matsim.core.controler.corelisteners.EventsHandling
2015-08-25 14:11:11,201  INFO ControlerListenerManager:122 calling notifyShutdown on org.matsim.core.controler.corelisteners.PlansScoring
2015-08-25 14:11:11,201  INFO ControlerListenerManager:122 calling notifyShutdown on org.matsim.core.controler.corelisteners.DumpDataAtEnd
2015-08-25 14:11:11,217  INFO Counter:51 [PopulationWriter] dumped person # 1
2015-08-25 14:11:11,217  INFO Counter:51 [PopulationWriter] dumped person # 2
2015-08-25 14:11:11,217  INFO Counter:51 [PopulationWriter] dumped person # 4
2015-08-25 14:11:11,218  INFO Counter:51 [PopulationWriter] dumped person # 8
2015-08-25 14:11:11,219  INFO Counter:51 [PopulationWriter] dumped person # 16
2015-08-25 14:11:11,221  INFO Counter:51 [PopulationWriter] dumped person # 32
2015-08-25 14:11:11,225  INFO Counter:51 [PopulationWriter] dumped person # 64
2015-08-25 14:11:11,235  INFO Counter:51 [PopulationWriter] dumped person # 128
2015-08-25 14:11:11,255  INFO Counter:51 [PopulationWriter] dumped person # 256
2015-08-25 14:11:11,293  INFO Counter:51 [PopulationWriter] dumped person # 512
2015-08-25 14:11:11,369  INFO Counter:51 [PopulationWriter] dumped person # 1024
2015-08-25 14:11:11,520  INFO Counter:51 [PopulationWriter] dumped person # 2048
2015-08-25 14:11:11,828  INFO Counter:51 [PopulationWriter] dumped person # 4096
2015-08-25 14:11:12,453  INFO Counter:51 [PopulationWriter] dumped person # 8192
2015-08-25 14:11:13,703  INFO Counter:51 [PopulationWriter] dumped person # 16384
2015-08-25 14:11:16,133  INFO Counter:51 [PopulationWriter] dumped person # 32768
2015-08-25 14:11:19,547  INFO PopulationWriter:95 Population written to: ./output/output_plans.xml.gz
2015-08-25 14:11:19,547  INFO Counter:57 [PopulationWriter] dumped person # 59487
2015-08-25 14:11:19,551  INFO NetworkWriter:46 Writing network to file: ./output/output_network.xml.gz...
2015-08-25 14:11:19,578  INFO NetworkWriter:49 done.
2015-08-25 14:11:19,649  INFO VehicleWriterV1:55 Vehicles written to: ./output/output_vehicles.xml.gz
2015-08-25 14:11:19,649  INFO ControlerListenerManager:127 calling notifyShutdown on org.matsim.analysis.ScoreStatsControlerListener
2015-08-25 14:11:19,649  INFO ControlerListenerManager:130 all ControlerShutdownListeners called.
2015-08-25 14:11:19,649  INFO AbstractController:186 S H U T D O W N   ---   shutdown completed.
2015-08-25 14:11:19,650  INFO OutputDirectoryLogging:168 closing the logfile, i.e. messages sent to the logger after this message are not written to the logfile.
