2016-01-31 12:29:19,977  INFO Gbl:57 JVM: 1.8.0_20; Oracle Corporation; mixed mode; 64-bit
2016-01-31 12:29:19,977  INFO Gbl:61 OS: Windows 8.1; 6.3; amd64
2016-01-31 12:29:19,977  INFO Gbl:64 CPU cores: 8
2016-01-31 12:29:19,978  INFO Gbl:65 max. Memory: 1803.0MB (1890582528B)
2016-01-31 12:29:19,979  INFO Gbl:103 MATSim-Build: r${buildNumber} (${timestamp})
2016-01-31 12:29:19,979  INFO AbstractController:61 Used Controler-Class: org.matsim.core.controler.Controler
2016-01-31 12:29:20,021  INFO ScenarioLoaderImpl:100 loading scenario from base directory: C:\MATSim\workspace-mars\dta-brt\
2016-01-31 12:29:20,022  INFO ScenarioLoaderImpl:123 loading network from ./input/specialNetwork.xml
2016-01-31 12:29:20,023  INFO MatsimXmlParser:145 starting to parse xml from file ./input/specialNetwork.xml ...
2016-01-31 12:29:20,026  INFO MatsimNetworkReader:83 using network_v1-reader.
2016-01-31 12:29:20,026  INFO MatsimXmlParser:253 Trying to load http://www.matsim.org/files/dtd/network_v1.dtd. In some cases (e.g. network interface up but no connection), this may take a bit.
2016-01-31 12:29:20,243  INFO NetworkImpl:134  node # 1
2016-01-31 12:29:20,244  INFO NetworkImpl:134  node # 2
2016-01-31 12:29:20,244  INFO NetworkImpl:134  node # 4
2016-01-31 12:29:20,245  INFO NetworkImpl:134  node # 8
2016-01-31 12:29:20,247  INFO NetworkImpl:134  node # 16
2016-01-31 12:29:20,248  INFO NetworkImpl:134  node # 32
2016-01-31 12:29:20,250  INFO NetworkImpl:134  node # 64
2016-01-31 12:29:20,255  INFO NetworkImpl:134  node # 128
2016-01-31 12:29:20,262  INFO NetworkImpl:134  node # 256
2016-01-31 12:29:20,272  INFO NetworkImpl:134  node # 512
2016-01-31 12:29:20,284  INFO NetworkImpl:134  node # 1024
2016-01-31 12:29:20,303  INFO NetworkImpl:130  link # 1
2016-01-31 12:29:20,303  INFO NetworkImpl:130  link # 2
2016-01-31 12:29:20,304  INFO NetworkImpl:130  link # 4
2016-01-31 12:29:20,304  INFO NetworkImpl:130  link # 8
2016-01-31 12:29:20,305  INFO NetworkImpl:130  link # 16
2016-01-31 12:29:20,306  INFO NetworkImpl:130  link # 32
2016-01-31 12:29:20,307  INFO NetworkImpl:130  link # 64
2016-01-31 12:29:20,310  INFO NetworkImpl:130  link # 128
2016-01-31 12:29:20,317  INFO NetworkImpl:130  link # 256
2016-01-31 12:29:20,321  WARN LinkImpl:111 [from=to=[id=56][coord=[x=1063203.287337012][y=877613.5198577307]][type=null][nof_inlinks=1][nof_outlinks=1] link is a loop]
2016-01-31 12:29:20,321  WARN LinkImpl:113  Future occurences of this logging statement are suppressed.
2016-01-31 12:29:20,326  WARN NodeImpl:98 [id=56][coord=[x=1063203.287337012][y=877613.5198577307]][type=null][nof_inlinks=1][nof_outlinks=2][inlink_id=56-56 is now in- and out-link]
2016-01-31 12:29:20,327  WARN NodeImpl:99  This message given only once.
2016-01-31 12:29:20,336  INFO NetworkImpl:130  link # 512
2016-01-31 12:29:20,352  INFO NetworkImpl:130  link # 1024
2016-01-31 12:29:20,370  INFO NetworkImpl:130  link # 2048
2016-01-31 12:29:20,380  INFO ScenarioLoaderImpl:147 no facilities file set in config, therefore not loading any facilities.  This is not a problem except if you are using facilities
2016-01-31 12:29:20,380  INFO ScenarioLoaderImpl:155 no facility-attributes file set in config, not loading any facility attributes
2016-01-31 12:29:20,380  INFO ScenarioLoaderImpl:162 loading population from ./input/plans_sitm_cali_01.04.2014_troncal.xml
2016-01-31 12:29:20,384  INFO MatsimXmlParser:145 starting to parse xml from file ./input/plans_sitm_cali_01.04.2014_troncal.xml ...
2016-01-31 12:29:20,386  INFO MatsimPopulationReader:86 using population_v5-reader.
2016-01-31 12:29:20,387  INFO MatsimXmlParser:253 Trying to load http://www.matsim.org/files/dtd/population_v5.dtd. In some cases (e.g. network interface up but no connection), this may take a bit.
2016-01-31 12:29:20,603  INFO PopulationImpl:176  person # 1
2016-01-31 12:29:20,603  INFO PopulationImpl:176  person # 2
2016-01-31 12:29:20,604  INFO PopulationImpl:176  person # 4
2016-01-31 12:29:20,604  INFO PopulationImpl:176  person # 8
2016-01-31 12:29:20,606  INFO PopulationImpl:176  person # 16
2016-01-31 12:29:20,609  INFO PopulationImpl:176  person # 32
2016-01-31 12:29:20,612  INFO PopulationImpl:176  person # 64
2016-01-31 12:29:20,617  INFO PopulationImpl:176  person # 128
2016-01-31 12:29:20,625  INFO PopulationImpl:176  person # 256
2016-01-31 12:29:20,640  INFO PopulationImpl:176  person # 512
2016-01-31 12:29:20,669  INFO PopulationImpl:176  person # 1024
2016-01-31 12:29:20,727  INFO PopulationImpl:176  person # 2048
2016-01-31 12:29:20,827  INFO PopulationImpl:176  person # 4096
2016-01-31 12:29:20,948  INFO PopulationImpl:176  person # 8192
2016-01-31 12:29:21,141  INFO PopulationImpl:176  person # 16384
2016-01-31 12:29:21,489  INFO PopulationImpl:176  person # 32768
2016-01-31 12:29:21,968  INFO PopulationImpl:176  person # 59487
2016-01-31 12:29:21,968  INFO ScenarioLoaderImpl:178 no person-attributes file set in config, not loading any person attributes
2016-01-31 12:29:21,969  INFO ScenarioLoaderImpl:190 no households file set in config, not loading households
2016-01-31 12:29:21,969  INFO ScenarioLoaderImpl:198 no household-attributes file set in config, not loading any household attributes
2016-01-31 12:29:21,973 DEBUG MatsimFileTypeGuesser:147 Detected public id: null
2016-01-31 12:29:21,973 DEBUG MatsimFileTypeGuesser:148 Detected system Id: http://www.matsim.org/files/dtd/transitSchedule_v1.dtd
2016-01-31 12:29:21,975  INFO MatsimXmlParser:145 starting to parse xml from file ./input/transitSchedule.xml ...
2016-01-31 12:29:21,976  INFO MatsimXmlParser:253 Trying to load http://www.matsim.org/files/dtd/transitSchedule_v1.dtd. In some cases (e.g. network interface up but no connection), this may take a bit.
2016-01-31 12:29:22,237  INFO ScenarioLoaderImpl:225 loading transit vehicles from ./input/transitVehicles.xml
2016-01-31 12:29:22,238  INFO MatsimXmlParser:145 starting to parse xml from file ./input/transitVehicles.xml ...
2016-01-31 12:29:22,240  INFO MatsimXmlParser:253 Trying to load http://www.matsim.org/files/dtd/vehicleDefinitions_v1.0.xsd. In some cases (e.g. network interface up but no connection), this may take a bit.
2016-01-31 12:29:22,451  INFO MatsimXmlParser:253 Trying to load http://www.matsim.org/files/dtd/matsimCommon.xsd. In some cases (e.g. network interface up but no connection), this may take a bit.
2016-01-31 12:29:22,679  INFO MatsimXmlParser:253 Trying to load http://www.matsim.org/files/dtd/vehicleDefinitionsEnumTypes.xsd. In some cases (e.g. network interface up but no connection), this may take a bit.
2016-01-31 12:29:22,900  INFO Counter:51  vehicles # 1
2016-01-31 12:29:22,900  INFO Counter:51  vehicles # 2
2016-01-31 12:29:22,901  INFO Counter:51  vehicles # 4
2016-01-31 12:29:22,901  INFO Counter:51  vehicles # 8
2016-01-31 12:29:22,901  INFO Counter:51  vehicles # 16
2016-01-31 12:29:22,902  INFO Counter:51  vehicles # 32
2016-01-31 12:29:22,904  INFO Counter:51  vehicles # 64
2016-01-31 12:29:22,910  INFO Controler:255 setting up transit simulation
2016-01-31 12:29:23,514  INFO EventsManagerImpl:144 adding Event-Handler: org.matsim.core.trafficmonitoring.TravelTimeCalculator
2016-01-31 12:29:23,515  INFO EventsManagerImpl:148   org.matsim.api.core.v01.events.handler.LinkEnterEventHandler
2016-01-31 12:29:23,516  INFO EventsManagerImpl:207     > org.matsim.api.core.v01.events.LinkEnterEvent
2016-01-31 12:29:23,517  INFO EventsManagerImpl:148   org.matsim.api.core.v01.events.handler.LinkLeaveEventHandler
2016-01-31 12:29:23,517  INFO EventsManagerImpl:207     > org.matsim.api.core.v01.events.LinkLeaveEvent
2016-01-31 12:29:23,517  INFO EventsManagerImpl:148   org.matsim.api.core.v01.events.handler.Wait2LinkEventHandler
2016-01-31 12:29:23,518  INFO EventsManagerImpl:207     > org.matsim.api.core.v01.events.Wait2LinkEvent
2016-01-31 12:29:23,518  INFO EventsManagerImpl:148   org.matsim.api.core.v01.events.handler.VehicleLeavesTrafficEventHandler
2016-01-31 12:29:23,519  INFO EventsManagerImpl:207     > org.matsim.api.core.v01.events.VehicleLeavesTrafficEvent
2016-01-31 12:29:23,519  INFO EventsManagerImpl:148   org.matsim.core.api.experimental.events.handler.VehicleArrivesAtFacilityEventHandler
2016-01-31 12:29:23,520  INFO EventsManagerImpl:207     > org.matsim.core.api.experimental.events.VehicleArrivesAtFacilityEvent
2016-01-31 12:29:23,520  INFO EventsManagerImpl:148   org.matsim.api.core.v01.events.handler.VehicleAbortsEventHandler
2016-01-31 12:29:23,521  INFO EventsManagerImpl:207     > org.matsim.api.core.v01.events.VehicleAbortsEvent
2016-01-31 12:29:23,522  INFO EventsManagerImpl:156 
2016-01-31 12:29:23,522  INFO EventsManagerImpl:144 adding Event-Handler: org.matsim.core.trafficmonitoring.TravelTimeCalculator
2016-01-31 12:29:23,522  INFO EventsManagerImpl:148   org.matsim.api.core.v01.events.handler.LinkEnterEventHandler
2016-01-31 12:29:23,522  INFO EventsManagerImpl:207     > org.matsim.api.core.v01.events.LinkEnterEvent
2016-01-31 12:29:23,522  INFO EventsManagerImpl:148   org.matsim.api.core.v01.events.handler.LinkLeaveEventHandler
2016-01-31 12:29:23,523  INFO EventsManagerImpl:207     > org.matsim.api.core.v01.events.LinkLeaveEvent
2016-01-31 12:29:23,523  INFO EventsManagerImpl:148   org.matsim.api.core.v01.events.handler.Wait2LinkEventHandler
2016-01-31 12:29:23,523  INFO EventsManagerImpl:207     > org.matsim.api.core.v01.events.Wait2LinkEvent
2016-01-31 12:29:23,524  INFO EventsManagerImpl:148   org.matsim.api.core.v01.events.handler.VehicleLeavesTrafficEventHandler
2016-01-31 12:29:23,524  INFO EventsManagerImpl:207     > org.matsim.api.core.v01.events.VehicleLeavesTrafficEvent
2016-01-31 12:29:23,524  INFO EventsManagerImpl:148   org.matsim.core.api.experimental.events.handler.VehicleArrivesAtFacilityEventHandler
2016-01-31 12:29:23,525  INFO EventsManagerImpl:207     > org.matsim.core.api.experimental.events.VehicleArrivesAtFacilityEvent
2016-01-31 12:29:23,525  INFO EventsManagerImpl:148   org.matsim.api.core.v01.events.handler.VehicleAbortsEventHandler
2016-01-31 12:29:23,525  INFO EventsManagerImpl:207     > org.matsim.api.core.v01.events.VehicleAbortsEvent
2016-01-31 12:29:23,526  INFO EventsManagerImpl:156 
2016-01-31 12:29:23,527  INFO CalcLinkStats:151  resetting `count' to zero.  This info is here since we want to check when this is happening during normal simulation runs.  kai, jan'11
2016-01-31 12:29:23,532  INFO EventsManagerImpl:144 adding Event-Handler: org.matsim.analysis.VolumesAnalyzer
2016-01-31 12:29:23,533  INFO EventsManagerImpl:148   org.matsim.api.core.v01.events.handler.LinkLeaveEventHandler
2016-01-31 12:29:23,533  INFO EventsManagerImpl:207     > org.matsim.api.core.v01.events.LinkLeaveEvent
2016-01-31 12:29:23,533  INFO EventsManagerImpl:148   org.matsim.api.core.v01.events.handler.PersonDepartureEventHandler
2016-01-31 12:29:23,533  INFO EventsManagerImpl:207     > org.matsim.api.core.v01.events.PersonDepartureEvent
2016-01-31 12:29:23,534  INFO EventsManagerImpl:156 
2016-01-31 12:29:23,534  INFO EventsManagerImpl:144 adding Event-Handler: org.matsim.analysis.VolumesAnalyzer
2016-01-31 12:29:23,534  INFO EventsManagerImpl:148   org.matsim.api.core.v01.events.handler.LinkLeaveEventHandler
2016-01-31 12:29:23,534  INFO EventsManagerImpl:207     > org.matsim.api.core.v01.events.LinkLeaveEvent
2016-01-31 12:29:23,534  INFO EventsManagerImpl:148   org.matsim.api.core.v01.events.handler.PersonDepartureEventHandler
2016-01-31 12:29:23,534  INFO EventsManagerImpl:207     > org.matsim.api.core.v01.events.PersonDepartureEvent
2016-01-31 12:29:23,535  INFO EventsManagerImpl:156 
2016-01-31 12:29:23,537  INFO Injector:81 org.matsim.api.core.v01.Scenario
2016-01-31 12:29:23,537  INFO Injector:82    -> of(org.matsim.core.scenario.MutableScenario@595b007d)
2016-01-31 12:29:23,537  INFO Injector:81 org.matsim.pt.transitSchedule.api.TransitSchedule
2016-01-31 12:29:23,538  INFO Injector:82    -> Key[type=org.matsim.core.scenario.ScenarioByInstanceModule$TransitScheduleProvider, annotation=[none]]
2016-01-31 12:29:23,538  INFO Injector:81 org.matsim.vehicles.Vehicles
2016-01-31 12:29:23,538  INFO Injector:82    -> Key[type=org.matsim.core.scenario.ScenarioByInstanceModule$TransitVehiclesProvider, annotation=[none]]
2016-01-31 12:29:23,538  INFO Injector:81 org.matsim.vehicles.Vehicles
2016-01-31 12:29:23,541  INFO Injector:82    -> @Provides org.matsim.core.scenario.ScenarioByInstanceModule.provideVehicles(ScenarioByInstanceModule.java:59)
2016-01-31 12:29:23,541  INFO Injector:81 org.matsim.lanes.data.v20.Lanes
2016-01-31 12:29:23,542  INFO Injector:82    -> @Provides org.matsim.core.scenario.ScenarioByInstanceModule.provideLanes(ScenarioByInstanceModule.java:64)
2016-01-31 12:29:23,542  INFO Injector:81 org.matsim.api.core.v01.network.Network
2016-01-31 12:29:23,542  INFO Injector:82    -> @Provides org.matsim.core.scenario.ScenarioByInstanceModule.provideNetwork(ScenarioByInstanceModule.java:37)
2016-01-31 12:29:23,542  INFO Injector:81 org.matsim.api.core.v01.population.PopulationFactory
2016-01-31 12:29:23,542  INFO Injector:82    -> @Provides org.matsim.core.scenario.ScenarioByInstanceModule.providePopulationFactory(ScenarioByInstanceModule.java:45)
2016-01-31 12:29:23,542  INFO Injector:81 org.matsim.api.core.v01.population.Population
2016-01-31 12:29:23,542  INFO Injector:82    -> @Provides org.matsim.core.scenario.ScenarioByInstanceModule.providePopulation(ScenarioByInstanceModule.java:41)
2016-01-31 12:29:23,542  INFO Injector:81 org.matsim.households.Households
2016-01-31 12:29:23,542  INFO Injector:82    -> @Provides org.matsim.core.scenario.ScenarioByInstanceModule.provideHouseholds(ScenarioByInstanceModule.java:54)
2016-01-31 12:29:23,542  INFO Injector:81 org.matsim.facilities.ActivityFacilities
2016-01-31 12:29:23,543  INFO Injector:82    -> @Provides org.matsim.core.scenario.ScenarioByInstanceModule.provideActivityFacilities(ScenarioByInstanceModule.java:49)
2016-01-31 12:29:23,543  INFO Injector:81 org.matsim.core.controler.corelisteners.PlansScoring
2016-01-31 12:29:23,544  INFO Injector:82    -> FactoryProxy{key=Key[type=org.matsim.core.controler.corelisteners.PlansScoring, annotation=[none]], provider=com.google.inject.internal.ConstructorBindingImpl$Factory@4550bb58[Scopes.SINGLETON]}
2016-01-31 12:29:23,544  INFO Injector:81 org.matsim.core.controler.corelisteners.PlansReplanning
2016-01-31 12:29:23,544  INFO Injector:82    -> FactoryProxy{key=Key[type=org.matsim.core.controler.corelisteners.PlansReplanning, annotation=[none]], provider=com.google.inject.internal.ConstructorBindingImpl$Factory@49139829[Scopes.SINGLETON]}
2016-01-31 12:29:23,544  INFO Injector:81 org.matsim.core.controler.corelisteners.PlansDumping
2016-01-31 12:29:23,544  INFO Injector:82    -> FactoryProxy{key=Key[type=org.matsim.core.controler.corelisteners.PlansDumping, annotation=[none]], provider=com.google.inject.internal.ConstructorBindingImpl$Factory@4efbca5a[Scopes.SINGLETON]}
2016-01-31 12:29:23,544  INFO Injector:81 org.matsim.core.controler.corelisteners.EventsHandling
2016-01-31 12:29:23,544  INFO Injector:82    -> FactoryProxy{key=Key[type=org.matsim.core.controler.corelisteners.EventsHandling, annotation=[none]], provider=com.google.inject.internal.ConstructorBindingImpl$Factory@77fbd92c[Scopes.SINGLETON]}
2016-01-31 12:29:23,545  INFO Injector:81 org.matsim.core.controler.corelisteners.DumpDataAtEnd
2016-01-31 12:29:23,545  INFO Injector:82    -> FactoryProxy{key=Key[type=org.matsim.core.controler.corelisteners.DumpDataAtEnd, annotation=[none]], provider=com.google.inject.internal.ConstructorBindingImpl$Factory@72967906[Scopes.SINGLETON]}
2016-01-31 12:29:23,545  INFO Injector:81 org.matsim.core.api.experimental.events.EventsManager
2016-01-31 12:29:23,545  INFO Injector:82    -> FactoryProxy{key=Key[type=org.matsim.core.api.experimental.events.EventsManager, annotation=[none]], provider=com.google.inject.internal.ConstructorBindingImpl$Factory@747ddf94}[Scopes.SINGLETON]
2016-01-31 12:29:23,545  INFO Injector:81 org.matsim.core.mobsim.framework.Mobsim
2016-01-31 12:29:23,545  INFO Injector:82    -> Key[type=org.matsim.core.mobsim.qsim.QSimProvider, annotation=[none]]
2016-01-31 12:29:23,545  INFO Injector:81 org.matsim.core.trafficmonitoring.TravelTimeCalculator
2016-01-31 12:29:23,545  INFO Injector:82    -> Key[type=org.matsim.core.trafficmonitoring.TravelTimeCalculatorModule$TravelTimeCalculatorProvider, annotation=[none]][Scopes.SINGLETON]
2016-01-31 12:29:23,546  INFO Injector:81 org.matsim.core.router.util.TravelTime
2016-01-31 12:29:23,546  INFO Injector:82    -> Key[type=org.matsim.core.trafficmonitoring.TravelTimeCalculatorModule$FromTravelTimeCalculator, annotation=[none]]
2016-01-31 12:29:23,546  INFO Injector:81 org.matsim.core.router.costcalculators.TravelDisutilityFactory
2016-01-31 12:29:23,546  INFO Injector:82    -> of(org.matsim.core.router.costcalculators.RandomizingTimeDistanceTravelDisutility$Builder@293a5bf6)
2016-01-31 12:29:23,546  INFO Injector:81 org.matsim.core.scoring.ScoringFunctionFactory
2016-01-31 12:29:23,546  INFO Injector:82    -> FactoryProxy{key=Key[type=org.matsim.core.scoring.ScoringFunctionFactory, annotation=[none]], provider=com.google.inject.internal.ConstructorBindingImpl$Factory@74f0ea28}
2016-01-31 12:29:23,546  INFO Injector:81 org.matsim.core.scoring.functions.CharyparNagelScoringParametersForPerson
2016-01-31 12:29:23,547  INFO Injector:82    -> FactoryProxy{key=Key[type=org.matsim.core.scoring.functions.CharyparNagelScoringParametersForPerson, annotation=[none]], provider=com.google.inject.internal.ConstructorBindingImpl$Factory@3349e9bb}
2016-01-31 12:29:23,547  INFO Injector:81 org.matsim.core.router.util.LeastCostPathCalculatorFactory
2016-01-31 12:29:23,547  INFO Injector:82    -> FactoryProxy{key=Key[type=org.matsim.core.router.util.LeastCostPathCalculatorFactory, annotation=[none]], provider=com.google.inject.internal.ConstructorBindingImpl$Factory@49e53c76[Scopes.SINGLETON]}
2016-01-31 12:29:23,547  INFO Injector:81 org.matsim.pt.router.TransitRouter
2016-01-31 12:29:23,547  INFO Injector:82    -> Key[type=org.matsim.pt.router.TransitRouterImplFactory, annotation=[none]]
2016-01-31 12:29:23,547  INFO Injector:81 org.matsim.core.router.RoutingModule
2016-01-31 12:29:23,547  INFO Injector:82    -> org.matsim.core.router.TripRouterFactoryModule$PseudoTransitRoutingModuleProvider@bef2d72
2016-01-31 12:29:23,548  INFO Injector:81 org.matsim.core.router.RoutingModule
2016-01-31 12:29:23,548  INFO Injector:82    -> org.matsim.core.router.TripRouterFactoryModule$TeleportationRoutingModuleProvider@69b2283a
2016-01-31 12:29:23,548  INFO Injector:81 org.matsim.core.router.RoutingModule
2016-01-31 12:29:23,548  INFO Injector:82    -> org.matsim.core.router.TripRouterFactoryModule$TeleportationRoutingModuleProvider@22a637e7
2016-01-31 12:29:23,548  INFO Injector:81 org.matsim.core.router.RoutingModule
2016-01-31 12:29:23,548  INFO Injector:82    -> org.matsim.core.router.TripRouterFactoryModule$TeleportationRoutingModuleProvider@6fe7aac8
2016-01-31 12:29:23,548  INFO Injector:81 org.matsim.core.router.RoutingModule
2016-01-31 12:29:23,548  INFO Injector:82    -> org.matsim.core.router.TripRouterFactoryModule$NetworkRoutingModuleProvider@1d119efb
2016-01-31 12:29:23,549  INFO Injector:81 org.matsim.core.router.RoutingModule
2016-01-31 12:29:23,549  INFO Injector:82    -> Key[type=org.matsim.core.router.TripRouterFactoryModule$TransitRoutingModuleProvider, annotation=[none]]
2016-01-31 12:29:23,549  INFO Injector:81 org.matsim.core.router.RoutingModule
2016-01-31 12:29:23,549  INFO Injector:82    -> FactoryProxy{key=Key[type=org.matsim.core.router.RoutingModule, annotation=@com.google.inject.name.Named(value=transit_walk)], provider=org.matsim.core.router.TripRouterFactoryModule$TeleportationRoutingModuleProvider@22a637e7}
2016-01-31 12:29:23,549  INFO Injector:81 org.matsim.core.router.MainModeIdentifier
2016-01-31 12:29:23,549  INFO Injector:82    -> FactoryProxy{key=Key[type=org.matsim.core.router.MainModeIdentifier, annotation=[none]], provider=com.google.inject.internal.ConstructorBindingImpl$Factory@5c6648b0}
2016-01-31 12:29:23,549  INFO Injector:81 org.matsim.core.router.TripRouter
2016-01-31 12:29:23,549  INFO Injector:82    -> Key[type=org.matsim.core.router.TripRouterModule$RealTripRouterProvider, annotation=[none]]
2016-01-31 12:29:23,550  INFO Injector:81 org.matsim.core.replanning.selectors.GenericPlanSelector<org.matsim.api.core.v01.population.Plan, org.matsim.api.core.v01.population.Person>
2016-01-31 12:29:23,550  INFO Injector:82    -> FactoryProxy{key=Key[type=org.matsim.core.replanning.selectors.GenericPlanSelector<org.matsim.api.core.v01.population.Plan, org.matsim.api.core.v01.population.Person>, annotation=[none]], provider=com.google.inject.internal.ConstructorBindingImpl$Factory@7c7b252e}
2016-01-31 12:29:23,550  INFO Injector:81 org.matsim.core.replanning.PlanStrategy
2016-01-31 12:29:23,550  INFO Injector:82    -> Key[type=org.matsim.core.replanning.modules.KeepLastSelectedPlanStrategyFactory, annotation=[none]]
2016-01-31 12:29:23,550  INFO Injector:81 org.matsim.core.replanning.PlanStrategy
2016-01-31 12:29:23,550  INFO Injector:82    -> Key[type=org.matsim.core.replanning.modules.SelectBestPlanStrategyFactory, annotation=[none]]
2016-01-31 12:29:23,551  INFO Injector:81 org.matsim.core.replanning.PlanStrategy
2016-01-31 12:29:23,551  INFO Injector:82    -> Key[type=org.matsim.core.replanning.modules.SelectExpBetaPlanStrategyFactory, annotation=[none]]
2016-01-31 12:29:23,551  INFO Injector:81 org.matsim.core.replanning.PlanStrategy
2016-01-31 12:29:23,551  INFO Injector:82    -> Key[type=org.matsim.core.replanning.modules.ChangeExpBetaPlanStrategyFactory, annotation=[none]]
2016-01-31 12:29:23,551  INFO Injector:81 org.matsim.core.replanning.PlanStrategy
2016-01-31 12:29:23,551  INFO Injector:82    -> Key[type=org.matsim.core.replanning.modules.SelectRandomStrategyFactory, annotation=[none]]
2016-01-31 12:29:23,551  INFO Injector:81 org.matsim.core.replanning.PlanStrategy
2016-01-31 12:29:23,551  INFO Injector:82    -> Key[type=org.matsim.core.replanning.modules.SelectPathSizeLogitStrategyFactory, annotation=[none]]
2016-01-31 12:29:23,552  INFO Injector:81 org.matsim.core.replanning.PlanStrategy
2016-01-31 12:29:23,552  INFO Injector:82    -> Key[type=org.matsim.core.replanning.modules.ReRoutePlanStrategyFactory, annotation=[none]]
2016-01-31 12:29:23,552  INFO Injector:81 org.matsim.core.replanning.PlanStrategy
2016-01-31 12:29:23,552  INFO Injector:82    -> Key[type=org.matsim.core.replanning.modules.TimeAllocationMutatorPlanStrategyFactory, annotation=[none]]
2016-01-31 12:29:23,552  INFO Injector:81 org.matsim.core.replanning.PlanStrategy
2016-01-31 12:29:23,552  INFO Injector:82    -> Key[type=org.matsim.core.replanning.modules.TimeAllocationMutatorReRoutePlanStrategyFactory, annotation=[none]]
2016-01-31 12:29:23,552  INFO Injector:81 org.matsim.core.replanning.PlanStrategy
2016-01-31 12:29:23,552  INFO Injector:82    -> Key[type=org.matsim.core.replanning.modules.ChangeSingleLegModeStrategyFactory, annotation=[none]]
2016-01-31 12:29:23,552  INFO Injector:81 org.matsim.core.replanning.PlanStrategy
2016-01-31 12:29:23,553  INFO Injector:82    -> Key[type=org.matsim.core.replanning.modules.ChangeLegModeStrategyFactory, annotation=[none]]
2016-01-31 12:29:23,553  INFO Injector:81 org.matsim.core.replanning.PlanStrategy
2016-01-31 12:29:23,553  INFO Injector:82    -> Key[type=org.matsim.core.replanning.modules.SubtourModeChoiceStrategyFactory, annotation=[none]]
2016-01-31 12:29:23,553  INFO Injector:81 org.matsim.core.replanning.PlanStrategy
2016-01-31 12:29:23,553  INFO Injector:82    -> Key[type=org.matsim.core.replanning.modules.ChangeTripModeStrategyFactory, annotation=[none]]
2016-01-31 12:29:23,553  INFO Injector:81 org.matsim.core.replanning.PlanStrategy
2016-01-31 12:29:23,553  INFO Injector:82    -> Key[type=org.matsim.core.replanning.modules.ChangeSingleTripModeStrategyFactory, annotation=[none]]
2016-01-31 12:29:23,553  INFO Injector:81 org.matsim.core.replanning.PlanStrategy
2016-01-31 12:29:23,554  INFO Injector:82    -> Key[type=org.matsim.core.replanning.modules.TripSubtourModeChoiceStrategyFactory, annotation=[none]]
2016-01-31 12:29:23,554  INFO Injector:81 org.matsim.core.replanning.ReplanningContext
2016-01-31 12:29:23,554  INFO Injector:82    -> FactoryProxy{key=Key[type=org.matsim.core.replanning.ReplanningContext, annotation=[none]], provider=com.google.inject.internal.ConstructorBindingImpl$Factory@515c6049}
2016-01-31 12:29:23,554  INFO Injector:81 org.matsim.core.controler.listener.ControlerListener
2016-01-31 12:29:23,554  INFO Injector:82    -> FactoryProxy{key=Key[type=org.matsim.core.controler.listener.ControlerListener, annotation=@com.google.inject.multibindings.Element(setName=,uniqueId=143, type=MULTIBINDER, keyType=)], provider=com.google.inject.internal.ConstructorBindingImpl$Factory@443118b0[Scopes.SINGLETON]}
2016-01-31 12:29:23,554  INFO Injector:81 org.matsim.core.controler.listener.ControlerListener
2016-01-31 12:29:23,555  INFO Injector:82    -> FactoryProxy{key=Key[type=org.matsim.core.controler.listener.ControlerListener, annotation=@com.google.inject.multibindings.Element(setName=,uniqueId=144, type=MULTIBINDER, keyType=)], provider=com.google.inject.internal.ConstructorBindingImpl$Factory@618b19ad}
2016-01-31 12:29:23,555  INFO Injector:81 org.matsim.core.controler.listener.ControlerListener
2016-01-31 12:29:23,555  INFO Injector:82    -> FactoryProxy{key=Key[type=org.matsim.core.controler.listener.ControlerListener, annotation=@com.google.inject.multibindings.Element(setName=,uniqueId=145, type=MULTIBINDER, keyType=)], provider=com.google.inject.internal.ConstructorBindingImpl$Factory@5e0e82ae}
2016-01-31 12:29:23,555  INFO Injector:81 org.matsim.core.controler.listener.ControlerListener
2016-01-31 12:29:23,555  INFO Injector:82    -> FactoryProxy{key=Key[type=org.matsim.core.controler.listener.ControlerListener, annotation=@com.google.inject.multibindings.Element(setName=,uniqueId=146, type=MULTIBINDER, keyType=)], provider=com.google.inject.internal.ConstructorBindingImpl$Factory@6b2ea799}
2016-01-31 12:29:23,555  INFO Injector:81 org.matsim.core.controler.listener.ControlerListener
2016-01-31 12:29:23,555  INFO Injector:82    -> FactoryProxy{key=Key[type=org.matsim.core.controler.listener.ControlerListener, annotation=@com.google.inject.multibindings.Element(setName=,uniqueId=147, type=MULTIBINDER, keyType=)], provider=com.google.inject.internal.ConstructorBindingImpl$Factory@36fc695d[Scopes.SINGLETON]}
2016-01-31 12:29:23,556  INFO Injector:81 org.matsim.analysis.ScoreStats
2016-01-31 12:29:23,556  INFO Injector:82    -> FactoryProxy{key=Key[type=org.matsim.analysis.ScoreStats, annotation=[none]], provider=com.google.inject.internal.ConstructorBindingImpl$Factory@36fc695d[Scopes.SINGLETON]}
2016-01-31 12:29:23,556  INFO Injector:81 org.matsim.core.controler.listener.ControlerListener
2016-01-31 12:29:23,556  INFO Injector:82    -> FactoryProxy{key=Key[type=org.matsim.core.controler.listener.ControlerListener, annotation=@com.google.inject.multibindings.Element(setName=,uniqueId=148, type=MULTIBINDER, keyType=)], provider=com.google.inject.internal.ConstructorBindingImpl$Factory@4afcd809}
2016-01-31 12:29:23,556  INFO Injector:81 org.matsim.counts.Counts<org.matsim.api.core.v01.network.Link>
2016-01-31 12:29:23,557  INFO Injector:82    -> @Provides org.matsim.counts.CountsModule.provideLinkCounts(CountsModule.java:59)[Scopes.SINGLETON]
2016-01-31 12:29:23,557  INFO Injector:81 org.matsim.core.controler.listener.ControlerListener
2016-01-31 12:29:23,557  INFO Injector:82    -> FactoryProxy{key=Key[type=org.matsim.core.controler.listener.ControlerListener, annotation=@com.google.inject.multibindings.Element(setName=,uniqueId=149, type=MULTIBINDER, keyType=)], provider=com.google.inject.internal.ConstructorBindingImpl$Factory@7c7a06ec}
2016-01-31 12:29:23,557  INFO Injector:81 org.matsim.core.controler.OutputDirectoryHierarchy
2016-01-31 12:29:23,557  INFO Injector:82    -> of(org.matsim.core.controler.OutputDirectoryHierarchy@408d971b)
2016-01-31 12:29:23,558  INFO Injector:81 org.matsim.analysis.IterationStopWatch
2016-01-31 12:29:23,558  INFO Injector:82    -> of(org.matsim.analysis.IterationStopWatch@c730b35)
2016-01-31 12:29:23,558  INFO Injector:81 org.matsim.core.controler.ControlerI
2016-01-31 12:29:23,558  INFO Injector:82    -> of(org.matsim.core.controler.Controler$2$1@22555ebf)
2016-01-31 12:29:23,558  INFO Injector:81 org.matsim.core.router.RoutingModule
2016-01-31 12:29:23,558  INFO Injector:82    -> FactoryProxy{key=Key[type=org.matsim.core.router.RoutingModule, annotation=@com.google.inject.multibindings.Element(setName=,uniqueId=150, type=MAPBINDER, keyType=java.lang.String)], provider=Key[type=org.matsim.core.router.TripRouterFactoryModule$TransitRoutingModuleProvider, annotation=[none]]}
2016-01-31 12:29:23,558  INFO Injector:81 org.matsim.core.router.RoutingModule
2016-01-31 12:29:23,558  INFO Injector:82    -> FactoryProxy{key=Key[type=org.matsim.core.router.RoutingModule, annotation=@com.google.inject.multibindings.Element(setName=,uniqueId=152, type=MAPBINDER, keyType=java.lang.String)], provider=org.matsim.core.router.TripRouterFactoryModule$NetworkRoutingModuleProvider@1d119efb}
2016-01-31 12:29:23,558  INFO Injector:81 org.matsim.core.router.RoutingModule
2016-01-31 12:29:23,559  INFO Injector:82    -> FactoryProxy{key=Key[type=org.matsim.core.router.RoutingModule, annotation=@com.google.inject.multibindings.Element(setName=,uniqueId=154, type=MAPBINDER, keyType=java.lang.String)], provider=FactoryProxy{key=Key[type=org.matsim.core.router.RoutingModule, annotation=@com.google.inject.name.Named(value=transit_walk)], provider=org.matsim.core.router.TripRouterFactoryModule$TeleportationRoutingModuleProvider@22a637e7}}
2016-01-31 12:29:23,559  INFO Injector:81 org.matsim.core.router.RoutingModule
2016-01-31 12:29:23,559  INFO Injector:82    -> FactoryProxy{key=Key[type=org.matsim.core.router.RoutingModule, annotation=@com.google.inject.multibindings.Element(setName=,uniqueId=156, type=MAPBINDER, keyType=java.lang.String)], provider=org.matsim.core.router.TripRouterFactoryModule$PseudoTransitRoutingModuleProvider@bef2d72}
2016-01-31 12:29:23,559  INFO Injector:81 org.matsim.core.router.RoutingModule
2016-01-31 12:29:23,559  INFO Injector:82    -> FactoryProxy{key=Key[type=org.matsim.core.router.RoutingModule, annotation=@com.google.inject.multibindings.Element(setName=,uniqueId=158, type=MAPBINDER, keyType=java.lang.String)], provider=org.matsim.core.router.TripRouterFactoryModule$TeleportationRoutingModuleProvider@22a637e7}
2016-01-31 12:29:23,559  INFO Injector:81 org.matsim.core.router.RoutingModule
2016-01-31 12:29:23,560  INFO Injector:82    -> FactoryProxy{key=Key[type=org.matsim.core.router.RoutingModule, annotation=@com.google.inject.multibindings.Element(setName=,uniqueId=160, type=MAPBINDER, keyType=java.lang.String)], provider=org.matsim.core.router.TripRouterFactoryModule$TeleportationRoutingModuleProvider@69b2283a}
2016-01-31 12:29:23,560  INFO Injector:81 org.matsim.core.router.RoutingModule
2016-01-31 12:29:23,560  INFO Injector:82    -> FactoryProxy{key=Key[type=org.matsim.core.router.RoutingModule, annotation=@com.google.inject.multibindings.Element(setName=,uniqueId=162, type=MAPBINDER, keyType=java.lang.String)], provider=org.matsim.core.router.TripRouterFactoryModule$TeleportationRoutingModuleProvider@6fe7aac8}
2016-01-31 12:29:23,560  INFO Injector:81 org.matsim.core.router.util.TravelTime
2016-01-31 12:29:23,560  INFO Injector:82    -> FactoryProxy{key=Key[type=org.matsim.core.router.util.TravelTime, annotation=@com.google.inject.multibindings.Element(setName=,uniqueId=164, type=MAPBINDER, keyType=java.lang.String)], provider=Key[type=org.matsim.core.trafficmonitoring.TravelTimeCalculatorModule$FromTravelTimeCalculator, annotation=[none]]}
2016-01-31 12:29:23,560  INFO Injector:81 org.matsim.core.router.costcalculators.TravelDisutilityFactory
2016-01-31 12:29:23,561  INFO Injector:82    -> FactoryProxy{key=Key[type=org.matsim.core.router.costcalculators.TravelDisutilityFactory, annotation=@com.google.inject.multibindings.Element(setName=,uniqueId=166, type=MAPBINDER, keyType=java.lang.String)], provider=ConstantFactory{value=org.matsim.core.router.costcalculators.RandomizingTimeDistanceTravelDisutility$Builder@293a5bf6}[Scopes.SINGLETON]}
2016-01-31 12:29:23,561  INFO Injector:81 org.matsim.core.scoring.EventsToScore
2016-01-31 12:29:23,561  INFO Injector:82    -> com.google.inject.internal.ConstructorBindingImpl$Factory@815b41f
2016-01-31 12:29:23,561  INFO Injector:81 org.matsim.core.router.SingleModeNetworksCache
2016-01-31 12:29:23,561  INFO Injector:82    -> com.google.inject.internal.ConstructorBindingImpl$Factory@6150c3ec[Scopes.SINGLETON]
2016-01-31 12:29:23,561  INFO Injector:81 org.matsim.core.replanning.StrategyManager
2016-01-31 12:29:23,561  INFO Injector:82    -> com.google.inject.internal.ConstructorBindingImpl$Factory@dd05255[Scopes.SINGLETON]
2016-01-31 12:29:23,562  INFO Injector:81 org.matsim.analysis.CalcLinkStats
2016-01-31 12:29:23,562  INFO Injector:82    -> com.google.inject.internal.ConstructorBindingImpl$Factory@1f2586d6[Scopes.SINGLETON]
2016-01-31 12:29:23,562  INFO Injector:81 org.matsim.analysis.LinkStatsControlerListener
2016-01-31 12:29:23,562  INFO Injector:82    -> com.google.inject.internal.ConstructorBindingImpl$Factory@443118b0[Scopes.SINGLETON]
2016-01-31 12:29:23,562  INFO Injector:81 org.matsim.analysis.VolumesAnalyzer
2016-01-31 12:29:23,562  INFO Injector:82    -> com.google.inject.internal.ConstructorBindingImpl$Factory@385c9627[Scopes.SINGLETON]
2016-01-31 12:29:23,562  INFO Injector:81 org.matsim.analysis.LegHistogram
2016-01-31 12:29:23,562  INFO Injector:82    -> com.google.inject.internal.ConstructorBindingImpl$Factory@217ed35e
2016-01-31 12:29:23,562  INFO Injector:81 org.matsim.analysis.CalcLegTimes
2016-01-31 12:29:23,563  INFO Injector:82    -> com.google.inject.internal.ConstructorBindingImpl$Factory@31190526[Scopes.SINGLETON]
2016-01-31 12:29:23,563  INFO Injector:81 org.matsim.analysis.TravelDistanceStats
2016-01-31 12:29:23,563  INFO Injector:82    -> com.google.inject.internal.ConstructorBindingImpl$Factory@3eb25e1a[Scopes.SINGLETON]
2016-01-31 12:29:23,563  INFO Injector:81 org.matsim.analysis.ScoreStatsControlerListener
2016-01-31 12:29:23,563  INFO Injector:82    -> com.google.inject.internal.ConstructorBindingImpl$Factory@36fc695d[Scopes.SINGLETON]
2016-01-31 12:29:23,563  INFO Injector:81 org.matsim.counts.CountsModule$CountsInitializer
2016-01-31 12:29:23,563  INFO Injector:82    -> com.google.inject.internal.ConstructorBindingImpl$Factory@3eb738bb[Scopes.SINGLETON]
2016-01-31 12:29:23,580  INFO StrategyManager:67 global innovation switch off after iteration: 2147483647
2016-01-31 12:29:23,582  INFO GenericStrategyManager:315 added change request:  iteration=-2147483648 newWeight=0.0 strategy=RandomPlanSelector_ReRoute
2016-01-31 12:29:23,582  INFO GenericStrategyManager:315 added change request:  iteration=-2147483648 newWeight=0.0 strategy=RandomPlanSelector_TimeAllocationMutator
2016-01-31 12:29:23,583  INFO GenericStrategyManager:347 setting PlanSelectorForRemoval to class org.matsim.core.replanning.selectors.WorstPlanForRemovalSelector
2016-01-31 12:29:23,735  INFO EventsManagerImpl:144 adding Event-Handler: org.matsim.core.scoring.EventsToScore
2016-01-31 12:29:23,735  INFO EventsManagerImpl:148   org.matsim.core.events.handler.BasicEventHandler
2016-01-31 12:29:23,735  INFO EventsManagerImpl:207     > org.matsim.api.core.v01.events.Event
2016-01-31 12:29:23,735  INFO EventsManagerImpl:156 
2016-01-31 12:29:23,735  INFO EventsManagerImpl:144 adding Event-Handler: org.matsim.core.scoring.EventsToScore
2016-01-31 12:29:23,735  INFO EventsManagerImpl:148   org.matsim.core.events.handler.BasicEventHandler
2016-01-31 12:29:23,736  INFO EventsManagerImpl:207     > org.matsim.api.core.v01.events.Event
2016-01-31 12:29:23,736  INFO EventsManagerImpl:156 
2016-01-31 12:29:23,736  INFO EventsManagerImpl:144 adding Event-Handler: org.matsim.analysis.LegHistogram
2016-01-31 12:29:23,737  INFO EventsManagerImpl:148   org.matsim.api.core.v01.events.handler.PersonDepartureEventHandler
2016-01-31 12:29:23,737  INFO EventsManagerImpl:207     > org.matsim.api.core.v01.events.PersonDepartureEvent
2016-01-31 12:29:23,737  INFO EventsManagerImpl:148   org.matsim.api.core.v01.events.handler.PersonArrivalEventHandler
2016-01-31 12:29:23,737  INFO EventsManagerImpl:207     > org.matsim.api.core.v01.events.PersonArrivalEvent
2016-01-31 12:29:23,737  INFO EventsManagerImpl:148   org.matsim.api.core.v01.events.handler.PersonStuckEventHandler
2016-01-31 12:29:23,737  INFO EventsManagerImpl:207     > org.matsim.api.core.v01.events.PersonStuckEvent
2016-01-31 12:29:23,737  INFO EventsManagerImpl:156 
2016-01-31 12:29:23,738  INFO EventsManagerImpl:144 adding Event-Handler: org.matsim.analysis.LegHistogram
2016-01-31 12:29:23,738  INFO EventsManagerImpl:148   org.matsim.api.core.v01.events.handler.PersonDepartureEventHandler
2016-01-31 12:29:23,738  INFO EventsManagerImpl:207     > org.matsim.api.core.v01.events.PersonDepartureEvent
2016-01-31 12:29:23,738  INFO EventsManagerImpl:148   org.matsim.api.core.v01.events.handler.PersonArrivalEventHandler
2016-01-31 12:29:23,738  INFO EventsManagerImpl:207     > org.matsim.api.core.v01.events.PersonArrivalEvent
2016-01-31 12:29:23,738  INFO EventsManagerImpl:148   org.matsim.api.core.v01.events.handler.PersonStuckEventHandler
2016-01-31 12:29:23,738  INFO EventsManagerImpl:207     > org.matsim.api.core.v01.events.PersonStuckEvent
2016-01-31 12:29:23,738  INFO EventsManagerImpl:156 
2016-01-31 12:29:23,739  INFO EventsManagerImpl:144 adding Event-Handler: org.matsim.analysis.CalcLegTimes
2016-01-31 12:29:23,739  INFO EventsManagerImpl:148   org.matsim.api.core.v01.events.handler.PersonDepartureEventHandler
2016-01-31 12:29:23,740  INFO EventsManagerImpl:207     > org.matsim.api.core.v01.events.PersonDepartureEvent
2016-01-31 12:29:23,740  INFO EventsManagerImpl:148   org.matsim.api.core.v01.events.handler.PersonArrivalEventHandler
2016-01-31 12:29:23,740  INFO EventsManagerImpl:207     > org.matsim.api.core.v01.events.PersonArrivalEvent
2016-01-31 12:29:23,740  INFO EventsManagerImpl:148   org.matsim.api.core.v01.events.handler.ActivityEndEventHandler
2016-01-31 12:29:23,741  INFO EventsManagerImpl:207     > org.matsim.api.core.v01.events.ActivityEndEvent
2016-01-31 12:29:23,741  INFO EventsManagerImpl:148   org.matsim.api.core.v01.events.handler.ActivityStartEventHandler
2016-01-31 12:29:23,741  INFO EventsManagerImpl:207     > org.matsim.api.core.v01.events.ActivityStartEvent
2016-01-31 12:29:23,741  INFO EventsManagerImpl:156 
2016-01-31 12:29:23,741  INFO EventsManagerImpl:144 adding Event-Handler: org.matsim.analysis.CalcLegTimes
2016-01-31 12:29:23,742  INFO EventsManagerImpl:148   org.matsim.api.core.v01.events.handler.PersonDepartureEventHandler
2016-01-31 12:29:23,742  INFO EventsManagerImpl:207     > org.matsim.api.core.v01.events.PersonDepartureEvent
2016-01-31 12:29:23,742  INFO EventsManagerImpl:148   org.matsim.api.core.v01.events.handler.PersonArrivalEventHandler
2016-01-31 12:29:23,742  INFO EventsManagerImpl:207     > org.matsim.api.core.v01.events.PersonArrivalEvent
2016-01-31 12:29:23,742  INFO EventsManagerImpl:148   org.matsim.api.core.v01.events.handler.ActivityEndEventHandler
2016-01-31 12:29:23,742  INFO EventsManagerImpl:207     > org.matsim.api.core.v01.events.ActivityEndEvent
2016-01-31 12:29:23,742  INFO EventsManagerImpl:148   org.matsim.api.core.v01.events.handler.ActivityStartEventHandler
2016-01-31 12:29:23,743  INFO EventsManagerImpl:207     > org.matsim.api.core.v01.events.ActivityStartEvent
2016-01-31 12:29:23,743  INFO EventsManagerImpl:156 
2016-01-31 12:29:24,448  INFO EventsManagerImpl:144 adding Event-Handler: org.matsim.core.scoring.EventsToScore
2016-01-31 12:29:24,449  INFO EventsManagerImpl:148   org.matsim.core.events.handler.BasicEventHandler
2016-01-31 12:29:24,449  INFO EventsManagerImpl:207     > org.matsim.api.core.v01.events.Event
2016-01-31 12:29:24,449  INFO EventsManagerImpl:156 
2016-01-31 12:29:24,449  INFO EventsManagerImpl:144 adding Event-Handler: org.matsim.core.scoring.EventsToScore
2016-01-31 12:29:24,449  INFO EventsManagerImpl:148   org.matsim.core.events.handler.BasicEventHandler
2016-01-31 12:29:24,449  INFO EventsManagerImpl:207     > org.matsim.api.core.v01.events.Event
2016-01-31 12:29:24,449  INFO EventsManagerImpl:156 
2016-01-31 12:29:24,452  INFO ControlerListenerManager:108 calling notifyStartup on org.matsim.counts.CountsControlerListener
2016-01-31 12:29:24,452  INFO ControlerListenerManager:108 calling notifyStartup on org.matsim.analysis.ScoreStatsControlerListener
2016-01-31 12:29:24,453  INFO ControlerListenerManager:111 all ControlerStartupListeners called.
2016-01-31 12:29:24,453  INFO ControlerUtils:57 config dump before iterations start
2016-01-31 12:29:24,463  INFO ControlerUtils:61 

<?xml version="1.0" encoding="UTF-8"?>
<!DOCTYPE config SYSTEM "http://www.matsim.org/files/dtd/config_v2.dtd">
<config>

<!-- ====================================================================== -->

	<module name="TimeAllocationMutator" >
		<param name="mutationAffectsDuration" value="true" />

		<!-- Default:1800.0; Defines how many seconds a time mutation can maximally shift a time. -->
		<param name="mutationRange" value="7200.0" />
	</module>

<!-- ====================================================================== -->

	<module name="changeLegMode" >
		<param name="ignoreCarAvailability" value="true" />
		<param name="modes" value="car,pt" />
	</module>

<!-- ====================================================================== -->

	<module name="controler" >

		<!-- Sets whether graphs showing some analyses should automatically be generated during the simulation. The generation of graphs usually takes a small amount of time that does not have any weight in big simulations, but add a significant overhead in smaller runs or in test cases where the graphical output is not even requested. -->
		<param name="createGraphs" value="true" />

		<!-- true if at the end of a run, plans, network, config etc should be dumped to a file -->
		<param name="dumpDataAtEnd" value="true" />

		<!-- Default=false;  -->
		<param name="enableLinkToLinkRouting" value="false" />

		<!-- Default=xml; Specifies the file format for writing events. Currently supported: txt, xml.
		Multiple values can be specified separated by commas (','). -->
		<param name="eventsFileFormat" value="xml" />

		<!-- Default=0;  -->
		<param name="firstIteration" value="0" />

		<!-- Default=1000;  -->
		<param name="lastIteration" value="20" />

		<!-- Defines which mobility simulation will be used. Currently supported: qsim JDEQSim 
		Depending on the chosen mobsim, you'll have to add additional config modules to configure the corresponding mobsim.
		For 'qsim', add a module 'qsim' to the config. -->
		<param name="mobsim" value="qsim" />

		<param name="outputDirectory" value="./output" />

		<!-- Possible values: failIfDirectoryExists, overwriteExistingFiles, deleteDirectoryIfExists -->
		<param name="overwriteFiles" value="failIfDirectoryExists" />

		<!-- The type of routing (least cost path) algorithm used, may have the values: Dijkstra, FastDijkstra, AStarLandmarks or FastAStarLandmarks -->
		<param name="routingAlgorithmType" value="Dijkstra" />

		<!-- An identifier for the current run which is used as prefix for output files and mentioned in output xml files etc. -->
		<param name="runId" value="null" />

		<!-- Comma-separated list of visualizer output file formats. `transims', `googleearth', and `otfvis'. -->
		<param name="snapshotFormat" value="" />

		<!-- iterationNumber % writeEventsInterval == 0 defines in which iterations events are written to a file. `0' disables events writing completely. -->
		<param name="writeEventsInterval" value="10" />

		<!-- iterationNumber % writePlansInterval == 0 defines (hopefully) in which iterations plans are written to a file. `0' disables plans writing completely.  Some plans in early iterations are always written -->
		<param name="writePlansInterval" value="1" />

		<!-- iterationNumber % writeSnapshotsInterval == 0 defines in which iterations snapshots are written to a file. `0' disables snapshots writing completely -->
		<param name="writeSnapshotsInterval" value="1" />
	</module>

<!-- ====================================================================== -->

	<module name="counts" >

		<!-- Transport modes that will be respected for the counts comparison. 'car' is default, which includes also bussed from the pt simulation module. Use this parameter in combination with 'filterModes' = true! -->
		<param name="analyzedModes" value="car" />

		<!-- Specifies over how many iterations the link volumes should be averaged that are used for the counts comparison. Use 1 or 0 to only use the link volumes of a single iteration. This values cannot be larger than the value specified for writeCountsInterval -->
		<param name="averageCountsOverIterations" value="5" />

		<!-- factor by which to re-scale the simulated values.  necessary when simulation runs with something different from 100%.  needs to be adapted manually -->
		<param name="countsScaleFactor" value="1.0" />

		<!-- distance to distanceFilterCenterNode to include counting stations. The unit of distance is the Euclidean distance implied by the coordinate system -->
		<param name="distanceFilter" value="null" />

		<!-- node id for center node of distance filter -->
		<param name="distanceFilterCenterNode" value="null" />

		<!-- If true, link counts from legs performed on modes not included in the 'analyzedModes' parameter are ignored. -->
		<param name="filterModes" value="false" />

		<!-- input file name to counts package -->
		<param name="inputCountsFile" value="null" />

		<!-- possible values: `html', `kml', `txt', `all' -->
		<param name="outputformat" value="txt" />

		<!-- Specifies how often the counts comparison should be calculated and written. -->
		<param name="writeCountsInterval" value="10" />
	</module>

<!-- ====================================================================== -->

	<module name="facilities" >
		<param name="inputFacilitiesFile" value="null" />
		<param name="inputFacilityAttributesFile" value="null" />
	</module>

<!-- ====================================================================== -->

	<module name="global" >
		<param name="coordinateSystem" value="EPSG:3115" />

		<!-- "global" number of threads.  This number is used, e.g., for replanning, but NOT in the mobsim.  This can typically be set to as many cores as you have available, or possibly even slightly more. -->
		<param name="numberOfThreads" value="8" />

		<param name="randomSeed" value="5399998864266990000" />
	</module>

<!-- ====================================================================== -->

	<module name="households" >
		<param name="inputFile" value="null" />
		<param name="inputHouseholdAttributesFile" value="null" />
	</module>

<!-- ====================================================================== -->

	<module name="linkStats" >

		<!-- Specifies over how many iterations the link volumes should be averaged that are used for the link statistics. Use 1 or 0 to only use the link volumes of a single iteration. This values cannot be larger than the value specified for writeLinkStatsInterval -->
		<param name="averageLinkStatsOverIterations" value="1" />

		<!-- Specifies how often the link stats should be calculated and written. Use 0 to disable the generation of link stats. -->
		<param name="writeLinkStatsInterval" value="1" />
	</module>

<!-- ====================================================================== -->

	<module name="network" >
		<param name="inputChangeEventsFile" value="null" />
		<param name="inputNetworkFile" value="./input/specialNetwork.xml" />
		<param name="laneDefinitionsFile" value="null" />
		<param name="timeVariantNetwork" value="false" />
	</module>

<!-- ====================================================================== -->

	<module name="parallelEventHandling" >

		<!-- Estimated number of events during mobsim run. An optional optimization hint for the framework. -->
		<param name="estimatedNumberOfEvents" value="null" />

		<!-- Number of threads for parallel events handler. 0 or null means the framework decides by itself. -->
		<param name="numberOfThreads" value="null" />

		<!-- If enabled, each event handler is assigned to its own thread. Note that enabling this feature disabled the numberOfThreads option! This feature is still experimental! -->
		<param name="oneThreadPerHandler" value="false" />

		<!-- If enabled, it is ensured that all events that are created during a time step of the mobility simulation are processed before the next time step is simulated. E.g. neccessary when within-day replanning is used. -->
		<param name="synchronizeOnSimSteps" value="true" />
	</module>

<!-- ====================================================================== -->

	<module name="planCalcScore" >

		<!-- logit model scale parameter. default: 1.  Has name and default value for historical reasons (see Bryan Raney's phd thesis). -->
		<param name="BrainExpBeta" value="2.0" />

		<param name="PathSizeLogitBeta" value="1.0" />

		<!-- fraction of iterations at which MSA score averaging is started. The matsim theory department suggests to use this together with switching off choice set innovation (where a similar switch exists), but it has not been tested yet. -->
		<param name="fractionOfIterationsToStartScoreMSA" value="null" />

		<!-- new_score = (1-learningRate)*old_score + learningRate * score_from_mobsim.  learning rates close to zero emulate score averaging, but slow down initial convergence -->
		<param name="learningRate" value="1.0" />

		<!-- There used to be a plateau between duration=0 and duration=zeroUtilityDuration. This caused durations to evolve to zero once they were below zeroUtilityDuration, causing problems.  Only use this switch if you need to be backwards compatible with some old results.  (changed nov'13) -->
		<param name="usingOldScoringBelowZeroUtilityDuration" value="false" />

		<!-- write a plans file in each iteration directory which contains what each agent actually did, and the score it received. -->
		<param name="writeExperiencedPlans" value="false" />

		<parameterset type="scoringParameters" >
			<param name="earlyDeparture" value="0.0" />
			<param name="lateArrival" value="0.0" />
			<param name="marginalUtilityOfMoney" value="1.0" />
			<param name="performing" value="6.0" />
			<param name="subpopulation" value="null" />
			<param name="utilityOfLineSwitch" value="-1.0" />
			<param name="waiting" value="-6.0" />
			<param name="waitingPt" value="-6.0" />

			<parameterset type="activityParams" >
				<param name="activityType" value="h" />
				<param name="closingTime" value="undefined" />
				<param name="earliestEndTime" value="undefined" />
				<param name="latestStartTime" value="undefined" />
				<param name="minimalDuration" value="undefined" />
				<param name="openingTime" value="undefined" />
				<param name="priority" value="1.0" />
				<param name="scoringThisActivityAtAll" value="true" />
				<param name="typicalDuration" value="12:00:00" />

				<!-- method to compute score at typical duration.  Use uniform for backwards compatibility (all activities same score; higher proba to drop long acts). -->
				<param name="typicalDurationScoreComputation" value="uniform" />
			</parameterset>

			<parameterset type="activityParams" >
				<param name="activityType" value="w" />
				<param name="closingTime" value="undefined" />
				<param name="earliestEndTime" value="undefined" />
				<param name="latestStartTime" value="undefined" />
				<param name="minimalDuration" value="undefined" />
				<param name="openingTime" value="undefined" />
				<param name="priority" value="1.0" />
				<param name="scoringThisActivityAtAll" value="true" />
				<param name="typicalDuration" value="08:00:00" />

				<!-- method to compute score at typical duration.  Use uniform for backwards compatibility (all activities same score; higher proba to drop long acts). -->
				<param name="typicalDurationScoreComputation" value="uniform" />
			</parameterset>

			<parameterset type="activityParams" >
				<param name="activityType" value="pt interaction" />
				<param name="closingTime" value="00:00:00" />
				<param name="earliestEndTime" value="undefined" />
				<param name="latestStartTime" value="undefined" />
				<param name="minimalDuration" value="undefined" />
				<param name="openingTime" value="00:00:00" />
				<param name="priority" value="1.0" />
				<param name="scoringThisActivityAtAll" value="true" />
				<param name="typicalDuration" value="00:02:00" />

				<!-- method to compute score at typical duration.  Use uniform for backwards compatibility (all activities same score; higher proba to drop long acts). -->
				<param name="typicalDurationScoreComputation" value="uniform" />
			</parameterset>

			<parameterset type="modeParams" >

				<!-- [utils] alternative-specific constant.  no guarantee that this is used anywhere. default=0 to be backwards compatible for the time being -->
				<param name="constant" value="0.0" />

				<!-- [utils/m] utility of walking per m, normally negative.  this is on top of the time (dis)utility. -->
				<param name="marginalUtilityOfDistance_util_m" value="0.0" />

				<!-- [utils/hr] additional marginal utility of traveling.  normally negative.  this comes on top of the opportunity cost of time -->
				<param name="marginalUtilityOfTraveling_util_hr" value="0.0" />

				<param name="mode" value="car" />
				<param name="monetaryDistanceRate" value="0.0" />
			</parameterset>

			<parameterset type="modeParams" >

				<!-- [utils] alternative-specific constant.  no guarantee that this is used anywhere. default=0 to be backwards compatible for the time being -->
				<param name="constant" value="0.0" />

				<!-- [utils/m] utility of walking per m, normally negative.  this is on top of the time (dis)utility. -->
				<param name="marginalUtilityOfDistance_util_m" value="0.0" />

				<!-- [utils/hr] additional marginal utility of traveling.  normally negative.  this comes on top of the opportunity cost of time -->
				<param name="marginalUtilityOfTraveling_util_hr" value="-6.0" />

				<param name="mode" value="pt" />
				<param name="monetaryDistanceRate" value="0.0" />
			</parameterset>

			<parameterset type="modeParams" >

				<!-- [utils] alternative-specific constant.  no guarantee that this is used anywhere. default=0 to be backwards compatible for the time being -->
				<param name="constant" value="0.0" />

				<!-- [utils/m] utility of walking per m, normally negative.  this is on top of the time (dis)utility. -->
				<param name="marginalUtilityOfDistance_util_m" value="0.0" />

				<!-- [utils/hr] additional marginal utility of traveling.  normally negative.  this comes on top of the opportunity cost of time -->
				<param name="marginalUtilityOfTraveling_util_hr" value="-6.0" />

				<param name="mode" value="walk" />
				<param name="monetaryDistanceRate" value="0.0" />
			</parameterset>

			<parameterset type="modeParams" >

				<!-- [utils] alternative-specific constant.  no guarantee that this is used anywhere. default=0 to be backwards compatible for the time being -->
				<param name="constant" value="0.0" />

				<!-- [utils/m] utility of walking per m, normally negative.  this is on top of the time (dis)utility. -->
				<param name="marginalUtilityOfDistance_util_m" value="0.0" />

				<!-- [utils/hr] additional marginal utility of traveling.  normally negative.  this comes on top of the opportunity cost of time -->
				<param name="marginalUtilityOfTraveling_util_hr" value="-6.0" />

				<param name="mode" value="bike" />
				<param name="monetaryDistanceRate" value="0.0" />
			</parameterset>

			<parameterset type="modeParams" >

				<!-- [utils] alternative-specific constant.  no guarantee that this is used anywhere. default=0 to be backwards compatible for the time being -->
				<param name="constant" value="0.0" />

				<!-- [utils/m] utility of walking per m, normally negative.  this is on top of the time (dis)utility. -->
				<param name="marginalUtilityOfDistance_util_m" value="0.0" />

				<!-- [utils/hr] additional marginal utility of traveling.  normally negative.  this comes on top of the opportunity cost of time -->
				<param name="marginalUtilityOfTraveling_util_hr" value="-6.0" />

				<param name="mode" value="other" />
				<param name="monetaryDistanceRate" value="0.0" />
			</parameterset>
		</parameterset>
	</module>

<!-- ====================================================================== -->

	<module name="plans" >

		<!-- String: minOfDurationAndEndTime tryEndTimeThenDuration endTimeOnly. Anything besides minOfDurationAndEndTime will internally use a different (simpler) version of the TimeAllocationMutator. -->
		<param name="activityDurationInterpretation" value="tryEndTimeThenDuration" />

		<!-- Path to a file containing person attributes (required file format: ObjectAttributes). -->
		<param name="inputPersonAttributesFile" value="null" />

		<param name="inputPlansFile" value="./input/plans_sitm_cali_01.04.2014_troncal.xml" />

		<!-- Defines how routes are stored in memory. Currently supported: LinkNetworkRoute, CompressedNetworkRoute. -->
		<param name="networkRouteType" value="LinkNetworkRoute" />

		<!-- (not tested) will remove plan attributes that are presumably not used, such as activityStartTime. default=false -->
		<param name="removingUnnecessaryPlanAttributes" value="false" />

		<!-- Name of the (Object)Attribute defining the subpopulation to which pertains a Person (as freight, through traffic, etc.). The attribute must be of String type. -->
		<param name="subpopulationAttributeName" value="subpopulation" />
	</module>

<!-- ====================================================================== -->

	<module name="planscalcroute" >

		<!-- All the modes for which the router is supposed to generate network routes (like car) -->
		<param name="networkModes" value="car" />

		<parameterset type="teleportedModeParameters" >
			<param name="beelineDistanceFactor" value="1.3" />
			<param name="mode" value="bike" />

			<!-- Free-speed factor for a teleported mode. Travel time = teleportedModeFreespeedFactor * <freespeed car travel time>. Insert a line like this for every such mode. Please do not set teleportedModeFreespeedFactor as well as teleportedModeSpeed for the same mode, but if you do, +teleportedModeFreespeedFactor wins over teleportedModeSpeed. -->
			<param name="teleportedModeFreespeedFactor" value="null" />

			<!-- Speed for a teleported mode. Travel time = (<beeline distance> * beelineDistanceFactor) / teleportedModeSpeed. Insert a line like this for every such mode. -->
			<param name="teleportedModeSpeed" value="4.166666666666667" />
		</parameterset>

		<parameterset type="teleportedModeParameters" >
			<param name="beelineDistanceFactor" value="1.3" />
			<param name="mode" value="walk" />

			<!-- Free-speed factor for a teleported mode. Travel time = teleportedModeFreespeedFactor * <freespeed car travel time>. Insert a line like this for every such mode. Please do not set teleportedModeFreespeedFactor as well as teleportedModeSpeed for the same mode, but if you do, +teleportedModeFreespeedFactor wins over teleportedModeSpeed. -->
			<param name="teleportedModeFreespeedFactor" value="null" />

			<!-- Speed for a teleported mode. Travel time = (<beeline distance> * beelineDistanceFactor) / teleportedModeSpeed. Insert a line like this for every such mode. -->
			<param name="teleportedModeSpeed" value="0.8333333333333333" />
		</parameterset>

		<parameterset type="teleportedModeParameters" >
			<param name="beelineDistanceFactor" value="1.3" />
			<param name="mode" value="undefined" />

			<!-- Free-speed factor for a teleported mode. Travel time = teleportedModeFreespeedFactor * <freespeed car travel time>. Insert a line like this for every such mode. Please do not set teleportedModeFreespeedFactor as well as teleportedModeSpeed for the same mode, but if you do, +teleportedModeFreespeedFactor wins over teleportedModeSpeed. -->
			<param name="teleportedModeFreespeedFactor" value="null" />

			<!-- Speed for a teleported mode. Travel time = (<beeline distance> * beelineDistanceFactor) / teleportedModeSpeed. Insert a line like this for every such mode. -->
			<param name="teleportedModeSpeed" value="13.88888888888889" />
		</parameterset>

		<parameterset type="teleportedModeParameters" >
			<param name="beelineDistanceFactor" value="1.3" />
			<param name="mode" value="ride" />

			<!-- Free-speed factor for a teleported mode. Travel time = teleportedModeFreespeedFactor * <freespeed car travel time>. Insert a line like this for every such mode. Please do not set teleportedModeFreespeedFactor as well as teleportedModeSpeed for the same mode, but if you do, +teleportedModeFreespeedFactor wins over teleportedModeSpeed. -->
			<param name="teleportedModeFreespeedFactor" value="1.0" />

			<!-- Speed for a teleported mode. Travel time = (<beeline distance> * beelineDistanceFactor) / teleportedModeSpeed. Insert a line like this for every such mode. -->
			<param name="teleportedModeSpeed" value="null" />
		</parameterset>

		<parameterset type="teleportedModeParameters" >
			<param name="beelineDistanceFactor" value="1.3" />
			<param name="mode" value="pt" />

			<!-- Free-speed factor for a teleported mode. Travel time = teleportedModeFreespeedFactor * <freespeed car travel time>. Insert a line like this for every such mode. Please do not set teleportedModeFreespeedFactor as well as teleportedModeSpeed for the same mode, but if you do, +teleportedModeFreespeedFactor wins over teleportedModeSpeed. -->
			<param name="teleportedModeFreespeedFactor" value="2.0" />

			<!-- Speed for a teleported mode. Travel time = (<beeline distance> * beelineDistanceFactor) / teleportedModeSpeed. Insert a line like this for every such mode. -->
			<param name="teleportedModeSpeed" value="null" />
		</parameterset>
	</module>

<!-- ====================================================================== -->

	<module name="ptCounts" >

		<!-- factor by which to re-scale the simulated values.  necessary when simulation runs with something different from 100%.  needs to be adapted manually -->
		<param name="countsScaleFactor" value="1.0" />

		<!-- distance to distanceFilterCenterNode to include counting stations. The unit of distance is the Euclidean distance implied by the coordinate system -->
		<param name="distanceFilter" value="null" />

		<!-- node id for center node of distance filter -->
		<param name="distanceFilterCenterNode" value="null" />

		<!-- input file containing the alighting (getting off) counts for pt -->
		<param name="inputAlightCountsFile" value="null" />

		<!-- input file containing the boarding (getting on) counts for pt -->
		<param name="inputBoardCountsFile" value="null" />

		<!-- input file containing the occupancy counts for pt -->
		<param name="inputOccupancyCountsFile" value="null" />

		<!-- possible values: `html', `kml', `txt', `all' -->
		<param name="outputformat" value="null" />

		<!-- every how many iterations (starting with 0) counts comparisons are generated -->
		<param name="ptCountsInterval" value="10" />
	</module>

<!-- ====================================================================== -->

	<module name="qsim" >
		<param name="endTime" value="28:00:00" />
		<param name="flowCapacityFactor" value="1.0" />

		<!-- decides if waiting vehicles enter the network after or before the already driving vehicles were moved. Default: false -->
		<param name="insertingWaitingVehiclesBeforeDrivingVehicles" value="false" />

		<!-- If link dynamics is set as SeepageQ, set to false if all seep modes should perform seepage. Default is true (better option). -->
		<param name="isRestrictingSeepage" value="true" />

		<!-- If link dynamics is set as SeepageQ, set to true if seep mode do not consumes any space on the link. Default is false. -->
		<param name="isSeepModeStorageFree" value="false" />

		<!-- default: FIFO; options: FIFO PassingQ SeepageQ -->
		<param name="linkDynamics" value="PassingQ" />

		<!-- The (initial) width of the links of the network. Use positive floating point values. -->
		<param name="linkWidth" value="30.0" />

		<!-- [comma-separated list] Defines which modes are congested modes. Technically, these are the modes that the departure handler of the netsimengine handles.  Effective cell size, effective lane width, flow capacity factor, and storage capacity factor need to be set with diligence.  Need to be vehicular modes to make sense. -->
		<param name="mainMode" value="car" />

		<!-- Shortens a link in the visualization, i.e. its start and end point are moved into towards the center. Does not affect traffic flow.  -->
		<param name="nodeOffset" value="0.0" />

		<!-- Number of threads used for the QSim.  Note that this setting is independent from the "global" threads setting.  In contrast to earlier versions, the non-parallel special version is no longer there. -->
		<param name="numberOfThreads" value="1" />

		<!-- Boolean. `true': stuck vehicles are removed, aborting the plan; `false': stuck vehicles are forced into the next link. `false' is probably the better choice. -->
		<param name="removeStuckVehicles" value="false" />

		<!-- If link dynamics is set as SeepageQ, set a seep mode. Default is bike. -->
		<param name="seepMode" value="bike" />

		<!-- Options: nullmaxOfStarttimeAndEarliestActivityEnd onlyUseStarttime  -->
		<param name="simStarttimeInterpretation" value="maxOfStarttimeAndEarliestActivityEnd" />

		<!-- snapshotStyle. One of: equiDist queue withHoles  -->
		<param name="snapshotStyle" value="equiDist" />

		<param name="snapshotperiod" value="00:00:00" />
		<param name="startTime" value="00:00:00" />
		<param name="storageCapacityFactor" value="1.0" />

		<!-- time in seconds.  Time after which the frontmost vehicle on a link is called `stuck' if it does not move. -->
		<param name="stuckTime" value="10.0" />

		<param name="timeStepSize" value="00:00:01" />

		<!-- options: nullqueue withHoles  -->
		<param name="trafficDynamics" value="queue" />

		<!-- [DEPRECATED, usevehiclesSource instead]  If this is true, we do not expect (or use) vehicles from the vehicles database, but create vehicles on the fly with default properties. -->
		<param name="useDefaultVehicles" value="true" />

		<!-- Set this parameter to true if lanes should be used, false if not. -->
		<param name="useLanes" value="false" />

		<!-- If a route does not reference a vehicle, agents will use the vehicle with the same id as their own. -->
		<param name="usePersonIdForMissingVehicleId" value="true" />

		<!-- normally, the qsim accumulates fractional flows up to one flow unit.  This is impractical with  with smaller PCEs.  If this switch is set to true, cars can enter a link if the accumulated flow is >=0, and the accumulated flow can go into negative.  Will probably become the default eventually. -->
		<param name="usingFastCapacityUpdate" value="false" />

		<!-- if the qsim should use as many runners as there are threads (Christoph's dissertation version) or more of them, together with a thread pool (seems to be faster in some situations, but is not tested). -->
		<param name="usingThreadpool" value="true" />

		<!-- Defines what happens if an agent wants to depart, but the specified vehicle is not available. One of: nullteleport wait exception  -->
		<param name="vehicleBehavior" value="wait" />

		<!-- If vehicles should all be the same default vehicle, or come from the vehicles file, or something else.  Possible values:  defaultVehicle fromVehiclesData -->
		<param name="vehiclesSource" value="defaultVehicle" />
	</module>

<!-- ====================================================================== -->

	<module name="scenario" >
	</module>

<!-- ====================================================================== -->

	<module name="strategy" >

		<!-- the external executable will be called with a config file as argument.  This is the pathname to a possible skeleton config, to which additional information will be added.  Can be null. -->
		<param name="ExternalExeConfigTemplate" value="null" />

		<!-- time out value (in seconds) after which matsim will consider the external strategy as failed -->
		<param name="ExternalExeTimeOut" value="3600" />

		<!-- root directory for temporary files generated by the external executable. Provided as a service; I don't think this is used by MATSim. -->
		<param name="ExternalExeTmpFileRootDir" value="null" />

		<!-- fraction of iterations where innovative strategies are switched off.  Something link 0.8 should be good.  E.g. if you run from iteration 400 to iteration 500, innovation is switched off at iteration 480 -->
		<param name="fractionOfIterationsToDisableInnovation" value="Infinity" />

		<!-- maximum number of plans per agent.  ``0'' means ``infinity''.  Currently (2010), ``5'' is a good number -->
		<param name="maxAgentPlanMemorySize" value="5" />

		<!-- name of PlanSelector for plans removal.  Possible defaults: WorstPlanSelector SelectRandom SelectExpBetaForRemoval ChangeExpBetaForRemoval PathSizeLogitSelectorForRemoval . The current default, WorstPlanSelector is not a good choice from a discrete choice theoretical perspective. Alternatives, however, have not been systematically tested. kai, feb'12 -->
		<param name="planSelectorForRemoval" value="WorstPlanSelector" />

		<parameterset type="strategysettings" >

			<!-- iteration after which strategy will be disabled.  most useful for ``innovative'' strategies (new routes, new times, ...). Normally, better use fractionOfIterationsToDisableInnovation -->
			<param name="disableAfterIteration" value="-1" />

			<!-- path to external executable (if applicable) -->
			<param name="executionPath" value="null" />

			<!-- name of strategy.  Possible default names: KeepLastSelected BestScore ChangeExpBeta SelectExpBeta SelectRandom SelectPathSizeLogit  (selectors), ReRoute TimeAllocationMutator ChangeLegMode TimeAllocationMutator_ReRoute ChangeSingleLegMode ChangeSingleTripMode SubtourModeChoice ChangeTripMode TripSubtourModeChoice  (innovative strategies). -->
			<param name="strategyName" value="ChangeExpBeta" />

			<!-- subpopulation to which the strategy applies. "null" refers to the default population, that is, the set of persons for which no explicit subpopulation is defined (ie no subpopulation attribute) -->
			<param name="subpopulation" value="null" />

			<!-- weight of a strategy: for each agent, a strategy will be selected with a probability proportional to its weight -->
			<param name="weight" value="0.8" />
		</parameterset>

		<parameterset type="strategysettings" >

			<!-- iteration after which strategy will be disabled.  most useful for ``innovative'' strategies (new routes, new times, ...). Normally, better use fractionOfIterationsToDisableInnovation -->
			<param name="disableAfterIteration" value="-1" />

			<!-- path to external executable (if applicable) -->
			<param name="executionPath" value="null" />

			<!-- name of strategy.  Possible default names: KeepLastSelected BestScore ChangeExpBeta SelectExpBeta SelectRandom SelectPathSizeLogit  (selectors), ReRoute TimeAllocationMutator ChangeLegMode TimeAllocationMutator_ReRoute ChangeSingleLegMode ChangeSingleTripMode SubtourModeChoice ChangeTripMode TripSubtourModeChoice  (innovative strategies). -->
			<param name="strategyName" value="ReRoute" />

			<!-- subpopulation to which the strategy applies. "null" refers to the default population, that is, the set of persons for which no explicit subpopulation is defined (ie no subpopulation attribute) -->
			<param name="subpopulation" value="null" />

			<!-- weight of a strategy: for each agent, a strategy will be selected with a probability proportional to its weight -->
			<param name="weight" value="0.1" />
		</parameterset>

		<parameterset type="strategysettings" >

			<!-- iteration after which strategy will be disabled.  most useful for ``innovative'' strategies (new routes, new times, ...). Normally, better use fractionOfIterationsToDisableInnovation -->
			<param name="disableAfterIteration" value="-1" />

			<!-- path to external executable (if applicable) -->
			<param name="executionPath" value="null" />

			<!-- name of strategy.  Possible default names: KeepLastSelected BestScore ChangeExpBeta SelectExpBeta SelectRandom SelectPathSizeLogit  (selectors), ReRoute TimeAllocationMutator ChangeLegMode TimeAllocationMutator_ReRoute ChangeSingleLegMode ChangeSingleTripMode SubtourModeChoice ChangeTripMode TripSubtourModeChoice  (innovative strategies). -->
			<param name="strategyName" value="TimeAllocationMutator" />

			<!-- subpopulation to which the strategy applies. "null" refers to the default population, that is, the set of persons for which no explicit subpopulation is defined (ie no subpopulation attribute) -->
			<param name="subpopulation" value="null" />

			<!-- weight of a strategy: for each agent, a strategy will be selected with a probability proportional to its weight -->
			<param name="weight" value="0.1" />
		</parameterset>
	</module>

<!-- ====================================================================== -->

	<module name="subtourModeChoice" >

		<!-- Defines the chain-based modes, seperated by commas -->
		<param name="chainBasedModes" value="car,bike" />

		<!-- Defines whether car availability must be considered or not. A agent has no car only if it has no license, or never access to a car -->
		<param name="considerCarAvailability" value="false" />

		<!-- Defines all the modes available, including chain-based modes, seperated by commas -->
		<param name="modes" value="car,pt,bike,walk" />
	</module>

<!-- ====================================================================== -->

	<module name="transit" >

		<!-- Optional input file containing additional attributes for transit lines, stored as ObjectAttributes. -->
		<param name="transitLinesAttributesFile" value="null" />

		<!-- Comma-separated list of transportation modes that are handled as transit. Defaults to 'pt'. -->
		<param name="transitModes" value="pt" />

		<!-- Input file containing the transit schedule to be simulated. -->
		<param name="transitScheduleFile" value="./input/transitSchedule.xml" />

		<!-- Optional input file containing additional attributes for transit stop facilities, stored as ObjectAttributes. -->
		<param name="transitStopsAttributesFile" value="null" />

		<!-- Set this parameter to true if transit should be simulated, false if not. -->
		<param name="useTransit" value="true" />

		<!-- Input file containing the vehicles used by the departures in the transit schedule. -->
		<param name="vehiclesFile" value="./input/transitVehicles.xml" />
	</module>

<!-- ====================================================================== -->

	<module name="transitRouter" >

		<!-- additional time the router allocates when a line switch happens. Can be interpreted as a 'safety' time that agents need to safely transfer from one line to another -->
		<param name="additionalTransferTime" value="0.0" />

		<!-- step size to increase searchRadius if no stops are found -->
		<param name="extensionRadius" value="200.0" />

		<!-- maximum beeline distance between stops that agents could transfer to by walking -->
		<param name="maxBeelineWalkConnectionDistance" value="100.0" />

		<!-- the radius in which stop locations are searched, given a start or target coordinate -->
		<param name="searchRadius" value="500.0" />
	</module>

<!-- ====================================================================== -->

	<module name="travelTimeCalculator" >

		<!-- Transport modes that will be respected by the travel time collector. 'car' is default, which includes also bussed from the pt simulation module. Use this parameter in combination with 'filterModes' = true! -->
		<param name="analyzedModes" value="car" />

		<param name="calculateLinkToLinkTravelTimes" value="false" />
		<param name="calculateLinkTravelTimes" value="true" />

		<!-- If true, link travel times from legs performed on modes not included in the 'analyzedModes' parameter are ignored. -->
		<param name="filterModes" value="false" />

		<!-- How to deal with congested time bins that have no link entry events. `optimistic' assumes free speed (too optimistic); 'experimental_LastMile' is experimental and probably too pessimistic. -->
		<param name="travelTimeAggregator" value="optimistic" />

		<!-- The size of the time bin (in sec) into which the link travel times are aggregated for the router -->
		<param name="travelTimeBinSize" value="900" />

		<!-- possible values: nullTravelTimeCalculatorArray TravelTimeCalculatorHashMap  -->
		<param name="travelTimeCalculator" value="TravelTimeCalculatorArray" />

		<!-- How to deal with link entry times at different positions during the time bin. Currently supported: average, linearinterpolation -->
		<param name="travelTimeGetter" value="average" />
	</module>

<!-- ====================================================================== -->

	<module name="vehicles" >
		<param name="vehiclesFile" value="null" />
	</module>

<!-- ====================================================================== -->

	<module name="vspExperimental" >

		<!-- (do not use) Set this filename of MZ05 daily analysis -->
		<param name="inputMZ05File" value="" />

		<!-- (do not use except of you have to) There was a problem with pt interaction scoring.  Some people solved it by overwriting the parameters of the pt interaction activity type.  Doing this now throws an Exception.  If you still insist on doing this, set the following to true. -->
		<param name="isAbleToOverwritePtInteractionParams" value="false" />

		<param name="isGeneratingBoardingDeniedEvent" value="false" />

		<!-- if an approximation of the opportunity cost of time is included into the radius calculation for location choice.`true' will be faster, but it is an approximation.  Default is `true'; `false' is available for backwards compatibility. -->
		<param name="isUsingOpportunityCostOfTimeForLocationChoice" value="true" />

		<param name="logitScaleParamForPlansRemoval" value="1.0" />

		<!-- Options: | ignore | info | warn | abort | .  When violating VSP defaults, this results in nothing, logfile infos, logfile warnings, or aborts.  Members of VSP should use `abort' or talk to kai. -->
		<param name="vspDefaultsCheckingLevel" value="ignore" />

		<!-- if true then writes output_events in output directory.  default is `false'. Will only work when lastIteration is multiple of events writing interval -->
		<param name="writingOutputEvents" value="false" />
	</module>

<!-- ====================================================================== -->

</config>

2016-01-31 12:29:24,465  INFO ControlerUtils:62 Complete config dump done.
2016-01-31 12:29:24,465  INFO ControlerUtils:63 Checking consistency of config...
2016-01-31 12:29:24,465  WARN PlanCalcScoreConfigGroup$ScoringParameterSet:1133 marginal utl of wait set to: -6.0. Setting this different from zero is discouraged. The parameter was also abused for pt routing; if you did that, consider setting the new parameter waitingPt instead.
[...]
2016-01-31 12:34:53,498  INFO MobsimListenerManager:49 calling addQueueSimulationListener
2016-01-31 12:34:53,498  INFO MobsimListenerManager:53   assigned class org.matsim.core.mobsim.framework.listeners.MobsimListener to interface org.matsim.core.mobsim.framework.listeners.MobsimInitializedListener
2016-01-31 12:34:53,499  INFO MobsimListenerManager:53   assigned class org.matsim.core.mobsim.framework.listeners.MobsimListener to interface org.matsim.vis.snapshotwriters.SnapshotWriterManager
2016-01-31 12:34:53,499  INFO MobsimListenerManager:53   assigned class org.matsim.core.mobsim.framework.listeners.MobsimListener to interface org.matsim.core.mobsim.framework.listeners.MobsimBeforeCleanupListener
2016-01-31 12:34:53,499  INFO MobsimListenerManager:53   assigned class org.matsim.core.mobsim.framework.listeners.MobsimListener to interface org.matsim.core.mobsim.framework.listeners.MobsimListener
2016-01-31 12:34:53,499  INFO MobsimListenerManager:53   assigned class org.matsim.core.mobsim.framework.listeners.MobsimListener to interface org.matsim.core.mobsim.framework.listeners.MobsimAfterSimStepListener
2016-01-31 12:34:53,499  INFO ReconstructingUmlaufBuilder:112 Generating UmlaufStuecke
2016-01-31 12:34:53,723  INFO QNetsimEngine:562 Assigned 2018 nodes and 2659 links to QSimEngineRunner #0
2016-01-31 12:34:53,755  INFO QNetsimEngine:388 SIMULATION (QNetsimEngine) AT 00:04:57 : #links=0 #nodes=0
2016-01-31 12:34:53,756  INFO QSim:462 SIMULATION (NEW QSim) AT 00:04:57 : #Veh=59564 lost=0 simT=0.0s realT=0s; (s/r): 0.0
2016-01-31 12:34:53,756  INFO Gbl:52 used RAM: 1024567048B = 1000553kB = 977MB  free: 828266744B = 789MB  total: 1852833792B = 1767MB
2016-01-31 12:34:53,828  INFO QNetsimEngine:388 SIMULATION (QNetsimEngine) AT 01:00:00 : #links=0 #nodes=0
2016-01-31 12:34:53,828  INFO QSim:462 SIMULATION (NEW QSim) AT 01:00:00 : #Veh=59564 lost=0 simT=3303.0s realT=0s; (s/r): Infinity
2016-01-31 12:34:53,829  INFO Gbl:52 used RAM: 1024567048B = 1000553kB = 977MB  free: 828266744B = 789MB  total: 1852833792B = 1767MB
2016-01-31 12:34:53,902  INFO QNetsimEngine:388 SIMULATION (QNetsimEngine) AT 02:00:00 : #links=0 #nodes=0
2016-01-31 12:34:53,902  INFO QSim:462 SIMULATION (NEW QSim) AT 02:00:00 : #Veh=59564 lost=0 simT=6903.0s realT=0s; (s/r): Infinity
2016-01-31 12:34:53,902  INFO Gbl:52 used RAM: 1030954736B = 1006791kB = 983MB  free: 821879056B = 783MB  total: 1852833792B = 1767MB
2016-01-31 12:34:53,977  INFO QNetsimEngine:388 SIMULATION (QNetsimEngine) AT 03:00:00 : #links=0 #nodes=0
2016-01-31 12:34:53,977  INFO QSim:462 SIMULATION (NEW QSim) AT 03:00:00 : #Veh=59564 lost=0 simT=10503.0s realT=0s; (s/r): Infinity
2016-01-31 12:34:53,977  INFO Gbl:52 used RAM: 1030954736B = 1006791kB = 983MB  free: 821879056B = 783MB  total: 1852833792B = 1767MB
2016-01-31 12:34:54,054  INFO QNetsimEngine:388 SIMULATION (QNetsimEngine) AT 04:00:00 : #links=0 #nodes=0
2016-01-31 12:34:54,054  INFO QSim:462 SIMULATION (NEW QSim) AT 04:00:00 : #Veh=59563 lost=0 simT=14103.0s realT=0s; (s/r): Infinity
2016-01-31 12:34:54,054  INFO Gbl:52 used RAM: 1030954736B = 1006791kB = 983MB  free: 821879056B = 783MB  total: 1852833792B = 1767MB
2016-01-31 12:34:54,161  INFO QNetsimEngine:388 SIMULATION (QNetsimEngine) AT 05:00:00 : #links=3 #nodes=0
2016-01-31 12:34:54,161  INFO QSim:462 SIMULATION (NEW QSim) AT 05:00:00 : #Veh=59559 lost=0 simT=17703.0s realT=0s; (s/r): Infinity
2016-01-31 12:34:54,161  INFO Gbl:52 used RAM: 1042996984B = 1018551kB = 994MB  free: 809836808B = 772MB  total: 1852833792B = 1767MB
2016-01-31 12:34:54,573  INFO QNetsimEngine:388 SIMULATION (QNetsimEngine) AT 06:00:00 : #links=20 #nodes=1
2016-01-31 12:34:54,573  INFO QSim:462 SIMULATION (NEW QSim) AT 06:00:00 : #Veh=59538 lost=0 simT=21303.0s realT=1s; (s/r): 21303.0
2016-01-31 12:34:54,573  INFO Gbl:52 used RAM: 1098390928B = 1072647kB = 1047MB  free: 754442864B = 719MB  total: 1852833792B = 1767MB
2016-01-31 12:34:55,280  INFO QNetsimEngine:388 SIMULATION (QNetsimEngine) AT 07:00:00 : #links=33 #nodes=1
2016-01-31 12:34:55,280  INFO QSim:462 SIMULATION (NEW QSim) AT 07:00:00 : #Veh=59462 lost=0 simT=24903.0s realT=1s; (s/r): 24903.0
2016-01-31 12:34:55,280  INFO Gbl:52 used RAM: 1199021152B = 1170919kB = 1143MB  free: 653812640B = 623MB  total: 1852833792B = 1767MB
2016-01-31 12:34:56,070  INFO QNetsimEngine:388 SIMULATION (QNetsimEngine) AT 08:00:00 : #links=34 #nodes=4
2016-01-31 12:34:56,070  INFO QSim:462 SIMULATION (NEW QSim) AT 08:00:00 : #Veh=59295 lost=0 simT=28503.0s realT=2s; (s/r): 14251.5
2016-01-31 12:34:56,071  INFO Gbl:52 used RAM: 1010253744B = 986575kB = 963MB  free: 845201488B = 806MB  total: 1855455232B = 1769MB
2016-01-31 12:34:56,758  INFO QNetsimEngine:388 SIMULATION (QNetsimEngine) AT 09:00:00 : #links=28 #nodes=3
2016-01-31 12:34:56,758  INFO QSim:462 SIMULATION (NEW QSim) AT 09:00:00 : #Veh=58904 lost=0 simT=32103.0s realT=3s; (s/r): 10701.0
2016-01-31 12:34:56,758  INFO Gbl:52 used RAM: 1113408856B = 1087313kB = 1061MB  free: 742046376B = 707MB  total: 1855455232B = 1769MB
2016-01-31 12:34:57,428  INFO QNetsimEngine:388 SIMULATION (QNetsimEngine) AT 10:00:00 : #links=26 #nodes=1
2016-01-31 12:34:57,428  INFO QSim:462 SIMULATION (NEW QSim) AT 10:00:00 : #Veh=58074 lost=0 simT=35703.0s realT=3s; (s/r): 11901.0
2016-01-31 12:34:57,429  INFO Gbl:52 used RAM: 1201548080B = 1173386kB = 1145MB  free: 653907152B = 623MB  total: 1855455232B = 1769MB
2016-01-31 12:34:58,016  INFO QNetsimEngine:388 SIMULATION (QNetsimEngine) AT 11:00:00 : #links=25 #nodes=5
2016-01-31 12:34:58,016  INFO QSim:462 SIMULATION (NEW QSim) AT 11:00:00 : #Veh=56693 lost=0 simT=39303.0s realT=4s; (s/r): 9825.75
2016-01-31 12:34:58,016  INFO Gbl:52 used RAM: 1290886952B = 1260631kB = 1231MB  free: 564568280B = 538MB  total: 1855455232B = 1769MB
2016-01-31 12:34:58,709  INFO QNetsimEngine:388 SIMULATION (QNetsimEngine) AT 12:00:00 : #links=24 #nodes=3
2016-01-31 12:34:58,709  INFO QSim:462 SIMULATION (NEW QSim) AT 12:00:00 : #Veh=54671 lost=0 simT=42903.0s realT=5s; (s/r): 8580.6
2016-01-31 12:34:58,709  INFO Gbl:52 used RAM: 1046910480B = 1022373kB = 998MB  free: 800156144B = 763MB  total: 1847066624B = 1761MB
2016-01-31 12:34:59,347  INFO QNetsimEngine:388 SIMULATION (QNetsimEngine) AT 13:00:00 : #links=26 #nodes=2
2016-01-31 12:34:59,347  INFO QSim:462 SIMULATION (NEW QSim) AT 13:00:00 : #Veh=51956 lost=0 simT=46503.0s realT=5s; (s/r): 9300.6
2016-01-31 12:34:59,347  INFO Gbl:52 used RAM: 1144397544B = 1117575kB = 1091MB  free: 702669080B = 670MB  total: 1847066624B = 1761MB
2016-01-31 12:34:59,958  INFO QNetsimEngine:388 SIMULATION (QNetsimEngine) AT 14:00:00 : #links=20 #nodes=2
2016-01-31 12:34:59,958  INFO QSim:462 SIMULATION (NEW QSim) AT 14:00:00 : #Veh=49249 lost=0 simT=50103.0s realT=6s; (s/r): 8350.5
2016-01-31 12:34:59,958  INFO Gbl:52 used RAM: 1235137568B = 1206189kB = 1177MB  free: 611929056B = 583MB  total: 1847066624B = 1761MB
2016-01-31 12:35:00,638  INFO QNetsimEngine:388 SIMULATION (QNetsimEngine) AT 15:00:00 : #links=23 #nodes=2
2016-01-31 12:35:00,639  INFO QSim:462 SIMULATION (NEW QSim) AT 15:00:00 : #Veh=46245 lost=0 simT=53703.0s realT=7s; (s/r): 7671.857142857143
2016-01-31 12:35:00,639  INFO Gbl:52 used RAM: 1333019136B = 1301776kB = 1271MB  free: 514047488B = 490MB  total: 1847066624B = 1761MB
2016-01-31 12:35:01,350  INFO QNetsimEngine:388 SIMULATION (QNetsimEngine) AT 16:00:00 : #links=23 #nodes=0
2016-01-31 12:35:01,350  INFO QSim:462 SIMULATION (NEW QSim) AT 16:00:00 : #Veh=42667 lost=0 simT=57303.0s realT=7s; (s/r): 8186.142857142857
2016-01-31 12:35:01,350  INFO Gbl:52 used RAM: 1080784336B = 1055453kB = 1030MB  free: 771000880B = 735MB  total: 1851785216B = 1766MB
2016-01-31 12:35:02,085  INFO QNetsimEngine:388 SIMULATION (QNetsimEngine) AT 17:00:00 : #links=25 #nodes=1
2016-01-31 12:35:02,085  INFO QSim:462 SIMULATION (NEW QSim) AT 17:00:00 : #Veh=37448 lost=0 simT=60903.0s realT=8s; (s/r): 7612.875
2016-01-31 12:35:02,085  INFO Gbl:52 used RAM: 1191179784B = 1163261kB = 1135MB  free: 660605432B = 630MB  total: 1851785216B = 1766MB
2016-01-31 12:35:02,987  INFO QNetsimEngine:388 SIMULATION (QNetsimEngine) AT 18:00:00 : #links=27 #nodes=2
2016-01-31 12:35:02,988  INFO QSim:462 SIMULATION (NEW QSim) AT 18:00:00 : #Veh=29831 lost=0 simT=64503.0s realT=9s; (s/r): 7167.0
2016-01-31 12:35:02,988  INFO Gbl:52 used RAM: 1331460312B = 1300254kB = 1269MB  free: 520324904B = 496MB  total: 1851785216B = 1766MB
2016-01-31 12:35:03,968  INFO QNetsimEngine:388 SIMULATION (QNetsimEngine) AT 19:00:00 : #links=32 #nodes=4
2016-01-31 12:35:03,968  INFO QSim:462 SIMULATION (NEW QSim) AT 19:00:00 : #Veh=21457 lost=0 simT=68103.0s realT=10s; (s/r): 6810.3
2016-01-31 12:35:03,968  INFO Gbl:52 used RAM: 1116299600B = 1090136kB = 1064MB  free: 747019952B = 712MB  total: 1863319552B = 1777MB
2016-01-31 12:35:04,573  INFO QNetsimEngine:388 SIMULATION (QNetsimEngine) AT 20:00:00 : #links=24 #nodes=4
2016-01-31 12:35:04,573  INFO QSim:462 SIMULATION (NEW QSim) AT 20:00:00 : #Veh=14581 lost=0 simT=71703.0s realT=11s; (s/r): 6518.454545454545
2016-01-31 12:35:04,573  INFO Gbl:52 used RAM: 1207594288B = 1179291kB = 1151MB  free: 655725264B = 625MB  total: 1863319552B = 1777MB
2016-01-31 12:35:05,025  INFO QNetsimEngine:388 SIMULATION (QNetsimEngine) AT 21:00:00 : #links=25 #nodes=4
2016-01-31 12:35:05,025  INFO QSim:462 SIMULATION (NEW QSim) AT 21:00:00 : #Veh=9347 lost=0 simT=75303.0s realT=11s; (s/r): 6845.727272727273
2016-01-31 12:35:05,025  INFO Gbl:52 used RAM: 1271013176B = 1241223kB = 1212MB  free: 592306376B = 564MB  total: 1863319552B = 1777MB
2016-01-31 12:35:05,436  INFO QNetsimEngine:388 SIMULATION (QNetsimEngine) AT 22:00:00 : #links=17 #nodes=1
2016-01-31 12:35:05,437  INFO QSim:462 SIMULATION (NEW QSim) AT 22:00:00 : #Veh=4384 lost=0 simT=78903.0s realT=11s; (s/r): 7173.0
2016-01-31 12:35:05,437  INFO Gbl:52 used RAM: 1327032360B = 1295930kB = 1265MB  free: 536287192B = 511MB  total: 1863319552B = 1777MB
2016-01-31 12:35:05,713  INFO QNetsimEngine:388 SIMULATION (QNetsimEngine) AT 23:00:00 : #links=15 #nodes=3
2016-01-31 12:35:05,713  INFO QSim:462 SIMULATION (NEW QSim) AT 23:00:00 : #Veh=1093 lost=0 simT=82503.0s realT=12s; (s/r): 6875.25
2016-01-31 12:35:05,713  INFO Gbl:52 used RAM: 1369974904B = 1337866kB = 1306MB  free: 493344648B = 470MB  total: 1863319552B = 1777MB
2016-01-31 12:35:05,817  INFO QNetsimEngine:388 SIMULATION (QNetsimEngine) AT 24:00:00 : #links=0 #nodes=0
2016-01-31 12:35:05,817  INFO QSim:462 SIMULATION (NEW QSim) AT 24:00:00 : #Veh=390 lost=0 simT=86103.0s realT=12s; (s/r): 7175.25
2016-01-31 12:35:05,817  INFO Gbl:52 used RAM: 1377641952B = 1345353kB = 1313MB  free: 485677600B = 463MB  total: 1863319552B = 1777MB
2016-01-31 12:35:05,894  INFO QNetsimEngine:388 SIMULATION (QNetsimEngine) AT 25:00:00 : #links=0 #nodes=0
2016-01-31 12:35:05,894  INFO QSim:462 SIMULATION (NEW QSim) AT 25:00:00 : #Veh=251 lost=0 simT=89703.0s realT=12s; (s/r): 7475.25
2016-01-31 12:35:05,894  INFO Gbl:52 used RAM: 1377641952B = 1345353kB = 1313MB  free: 485677600B = 463MB  total: 1863319552B = 1777MB
2016-01-31 12:35:05,968  INFO QNetsimEngine:388 SIMULATION (QNetsimEngine) AT 26:00:00 : #links=0 #nodes=0
2016-01-31 12:35:05,968  INFO QSim:462 SIMULATION (NEW QSim) AT 26:00:00 : #Veh=215 lost=0 simT=93303.0s realT=12s; (s/r): 7775.25
2016-01-31 12:35:05,968  INFO Gbl:52 used RAM: 1379899424B = 1347558kB = 1315MB  free: 483420128B = 461MB  total: 1863319552B = 1777MB
2016-01-31 12:35:06,042  INFO QNetsimEngine:388 SIMULATION (QNetsimEngine) AT 27:00:00 : #links=0 #nodes=0
2016-01-31 12:35:06,042  INFO QSim:462 SIMULATION (NEW QSim) AT 27:00:00 : #Veh=190 lost=0 simT=96903.0s realT=12s; (s/r): 8075.25
2016-01-31 12:35:06,042  INFO Gbl:52 used RAM: 1382156840B = 1349762kB = 1318MB  free: 481162712B = 458MB  total: 1863319552B = 1777MB
2016-01-31 12:35:06,115  INFO QNetsimEngine:388 SIMULATION (QNetsimEngine) AT 28:00:00 : #links=0 #nodes=0
2016-01-31 12:35:06,115  INFO QSim:462 SIMULATION (NEW QSim) AT 28:00:00 : #Veh=175 lost=0 simT=100503.0s realT=12s; (s/r): 8375.25
2016-01-31 12:35:06,115  INFO Gbl:52 used RAM: 1382156840B = 1349762kB = 1318MB  free: 481162712B = 458MB  total: 1863319552B = 1777MB
2016-01-31 12:35:06,116  INFO AbstractController$6:225 ### ITERATION 20 fires after mobsim event
2016-01-31 12:35:06,116  INFO ControlerListenerManager:244 calling notifyAfterMobsim on org.matsim.core.controler.corelisteners.EventsHandlingImpl
2016-01-31 12:35:06,117  INFO ControlerListenerManager:249 calling notifyAfterMobsim on org.matsim.analysis.LegTimesControlerListener
2016-01-31 12:35:06,117  INFO Gbl:185 Thread performance: Thread=class org.matsim.core.events.SimStepParallelEventsManagerImpl$ProcessEventsRunnable0  cpu-time=10.09375sec
2016-01-31 12:35:06,118  INFO LegTimesControlerListener:50 [20] average trip (probably: leg) duration is: 248 seconds = 00:04:08
2016-01-31 12:35:06,118  INFO ControlerListenerManager:252 [it.20] all ControlerAfterMobsimListeners called.
2016-01-31 12:35:06,118  INFO AbstractController$4:162 ### ITERATION 20 fires scoring event
2016-01-31 12:35:06,118  INFO ControlerListenerManager:184 calling notifyScoring on org.matsim.core.controler.corelisteners.PlansScoringImpl
2016-01-31 12:35:06,204  INFO EventsToScore:203 it: 20 msaStart: null
2016-01-31 12:35:06,230  INFO ControlerListenerManager:195 [it.20] all ControlerScoringListeners called.
2016-01-31 12:35:06,230  INFO AbstractController$5:170 ### ITERATION 20 fires iteration end event
2016-01-31 12:35:06,230  INFO ControlerListenerManager:161 calling notifyIterationEnds on org.matsim.core.controler.corelisteners.EventsHandlingImpl
2016-01-31 12:35:06,231  INFO EventsManagerImpl:161 removing Event-Handler: org.matsim.core.events.algorithms.EventWriterXML
2016-01-31 12:35:06,231  INFO EventsManagerImpl:161 removing Event-Handler: org.matsim.core.events.algorithms.EventWriterXML
2016-01-31 12:35:06,232  INFO ControlerListenerManager:161 calling notifyIterationEnds on org.matsim.core.controler.corelisteners.PlansScoringImpl
2016-01-31 12:35:06,232  INFO ControlerListenerManager:168 calling notifyIterationEnds on org.matsim.counts.CountsControlerListener
2016-01-31 12:35:06,232  INFO CountSimComparisonTableWriter:93 Writing CountsSimComparison to ./output/ITERS/it.20/20.countscompare.txt
2016-01-31 12:35:06,233  INFO CountSimComparisonTableWriter:127 Writing 'average weekday traffic volume' to ./output/ITERS/it.20/20.countscompareAWTV.txt
2016-01-31 12:35:06,233  INFO ControlerListenerManager:168 calling notifyIterationEnds on org.matsim.analysis.ScoreStatsControlerListener
2016-01-31 12:35:06,254  INFO ScoreStatsControlerListener:185 -- avg. score of the executed plan of each agent: 108.7751875656488
2016-01-31 12:35:06,254  INFO ScoreStatsControlerListener:186 -- avg. score of the worst plan of each agent: 93.56227782188759
2016-01-31 12:35:06,254  INFO ScoreStatsControlerListener:187 -- avg. of the avg. plan score per agent: 104.47114617575474
2016-01-31 12:35:06,254  INFO ScoreStatsControlerListener:188 -- avg. score of the best plan of each agent: 112.93075242185942
2016-01-31 12:35:06,323  INFO ControlerListenerManager:168 calling notifyIterationEnds on org.matsim.analysis.TravelDistanceStatsControlerListener
2016-01-31 12:35:06,325  INFO TravelDistanceStats:128 [TravelDistanceStats] using 8 thread(s).
2016-01-31 12:35:06,343  INFO TravelDistanceStats:141 [TravelDistanceStats] all threads finished.
2016-01-31 12:35:06,343  INFO TravelDistanceStats:161 -- average of the average leg distance per plan (executed plans only): 1776.8184517697694
2016-01-31 12:35:06,344  INFO TravelDistanceStats:162 (TravelDistanceStats takes an average over all legs where the simulation reports travelled distances. These are car legs, pt legs,
2016-01-31 12:35:06,344  INFO TravelDistanceStats:163 (and teleported legs whose route contains a distance.)
2016-01-31 12:35:06,407  INFO ControlerListenerManager:168 calling notifyIterationEnds on org.matsim.analysis.LegHistogramListener
2016-01-31 12:35:06,412  INFO LegHistogramListener:72 number of legs:	359068	100%
2016-01-31 12:35:06,412  INFO LegHistogramListener:79 number of pt legs:	106018	29.525883676629498%
2016-01-31 12:35:06,412  INFO LegHistogramListener:79 number of transit_walk legs:	253050	70.47411632337051%
2016-01-31 12:35:06,832  INFO ControlerListenerManager:168 calling notifyIterationEnds on org.matsim.analysis.LinkStatsControlerListener
2016-01-31 12:35:06,988  INFO ControlerListenerManager:172 [it.20] all ControlerIterationEndsListeners called.
2016-01-31 12:35:07,088  INFO AbstractController:180 ### ITERATION 20 ENDS
2016-01-31 12:35:07,089  INFO AbstractController:181 ###################################################
2016-01-31 12:35:07,089  INFO MatsimRuntimeModifications:108 S H U T D O W N   ---   start shutdown.
2016-01-31 12:35:07,089  INFO ControlerListenerManager:122 calling notifyShutdown on org.matsim.core.controler.corelisteners.EventsHandlingImpl
2016-01-31 12:35:07,089  INFO ControlerListenerManager:122 calling notifyShutdown on org.matsim.core.controler.corelisteners.DumpDataAtEndImpl
2016-01-31 12:35:07,110  INFO Counter:51 [PopulationWriter] dumped person # 1
2016-01-31 12:35:07,111  INFO Counter:51 [PopulationWriter] dumped person # 2
2016-01-31 12:35:07,111  INFO Counter:51 [PopulationWriter] dumped person # 4
2016-01-31 12:35:07,112  INFO Counter:51 [PopulationWriter] dumped person # 8
2016-01-31 12:35:07,113  INFO Counter:51 [PopulationWriter] dumped person # 16
2016-01-31 12:35:07,116  INFO Counter:51 [PopulationWriter] dumped person # 32
2016-01-31 12:35:07,121  INFO Counter:51 [PopulationWriter] dumped person # 64
2016-01-31 12:35:07,132  INFO Counter:51 [PopulationWriter] dumped person # 128
2016-01-31 12:35:07,155  INFO Counter:51 [PopulationWriter] dumped person # 256
2016-01-31 12:35:07,199  INFO Counter:51 [PopulationWriter] dumped person # 512
2016-01-31 12:35:07,289  INFO Counter:51 [PopulationWriter] dumped person # 1024
2016-01-31 12:35:07,488  INFO Counter:51 [PopulationWriter] dumped person # 2048
2016-01-31 12:35:07,868  INFO Counter:51 [PopulationWriter] dumped person # 4096
2016-01-31 12:35:08,585  INFO Counter:51 [PopulationWriter] dumped person # 8192
2016-01-31 12:35:10,046  INFO Counter:51 [PopulationWriter] dumped person # 16384
2016-01-31 12:35:12,894  INFO Counter:51 [PopulationWriter] dumped person # 32768
2016-01-31 12:35:16,814  INFO PopulationWriter:95 Population written to: ./output/output_plans.xml.gz
2016-01-31 12:35:16,815  INFO Counter:57 [PopulationWriter] dumped person # 59487
2016-01-31 12:35:16,820  INFO NetworkWriter:46 Writing network to file: ./output/output_network.xml.gz...
2016-01-31 12:35:16,848  INFO NetworkWriter:49 done.
2016-01-31 12:35:16,864  INFO VehicleWriterV1:55 Vehicles written to: ./output/output_transitVehicles.xml.gz
2016-01-31 12:35:16,864  INFO VehicleWriterV1:55 Vehicles written to: ./output/output_vehicles.xml.gz
2016-01-31 12:35:16,867  INFO Counter:57 [HouseholdsWriter] dumped household # 0
2016-01-31 12:35:16,869  INFO LaneDefinitionsWriter20:62 Using LaneDefinitionWriter20...
2016-01-31 12:35:16,869  INFO LaneDefinitionsWriter20:71 writing to file: ./output/output_lanes.xml.gz
2016-01-31 12:35:16,944  INFO ControlerListenerManager:127 calling notifyShutdown on org.matsim.analysis.ScoreStatsControlerListener
2016-01-31 12:35:16,944  INFO ControlerListenerManager:127 calling notifyShutdown on org.matsim.analysis.TravelDistanceStatsControlerListener
2016-01-31 12:35:16,944  INFO ControlerListenerManager:130 all ControlerShutdownListeners called.
2016-01-31 12:35:16,945  INFO MatsimRuntimeModifications:131 S H U T D O W N   ---   shutdown completed.
2016-01-31 12:35:16,945  INFO OutputDirectoryLogging:168 closing the logfile, i.e. messages sent to the logger after this message are not written to the logfile.
