2015-10-05 14:59:51,648  INFO Gbl:57 JVM: 1.8.0_20; Oracle Corporation; mixed mode; 64-bit
2015-10-05 14:59:51,649  INFO Gbl:61 OS: Windows 8.1; 6.3; amd64
2015-10-05 14:59:51,649  INFO Gbl:64 CPU cores: 8
2015-10-05 14:59:51,651  INFO Gbl:65 max. Memory: 1803.0MB (1890582528B)
2015-10-05 14:59:51,652  INFO Gbl:103 MATSim-Build: r${buildNumber} (${timestamp})
2015-10-05 14:59:51,652  INFO AbstractController:102 Used Controler-Class: org.matsim.core.controler.Controler
2015-10-05 14:59:51,720  INFO ScenarioLoaderImpl:100 loading scenario from base directory: C:\MATSim\workspace-mars\dta-brt\
2015-10-05 14:59:51,720  INFO ScenarioLoaderImpl:123 loading network from ./input/specialNetwork.xml
2015-10-05 14:59:51,723  INFO MatsimXmlParser:145 starting to parse xml from file ./input/specialNetwork.xml ...
2015-10-05 14:59:51,726  INFO MatsimNetworkReader:83 using network_v1-reader.
2015-10-05 14:59:51,727  INFO MatsimXmlParser:253 Trying to load http://www.matsim.org/files/dtd/network_v1.dtd. In some cases (e.g. network interface up but no connection), this may take a bit.
2015-10-05 14:59:52,374  INFO NetworkImpl:134  node # 1
2015-10-05 14:59:52,376  INFO NetworkImpl:134  node # 2
2015-10-05 14:59:52,377  INFO NetworkImpl:134  node # 4
2015-10-05 14:59:52,379  INFO NetworkImpl:134  node # 8
2015-10-05 14:59:52,382  INFO NetworkImpl:134  node # 16
2015-10-05 14:59:52,387  INFO NetworkImpl:134  node # 32
2015-10-05 14:59:52,393  INFO NetworkImpl:134  node # 64
2015-10-05 14:59:52,403  INFO NetworkImpl:134  node # 128
2015-10-05 14:59:52,417  INFO NetworkImpl:134  node # 256
2015-10-05 14:59:52,430  INFO NetworkImpl:134  node # 512
2015-10-05 14:59:52,447  INFO NetworkImpl:134  node # 1024
2015-10-05 14:59:52,472  INFO NetworkImpl:130  link # 1
2015-10-05 14:59:52,472  INFO NetworkImpl:130  link # 2
2015-10-05 14:59:52,473  INFO NetworkImpl:130  link # 4
2015-10-05 14:59:52,473  INFO NetworkImpl:130  link # 8
2015-10-05 14:59:52,474  INFO NetworkImpl:130  link # 16
2015-10-05 14:59:52,476  INFO NetworkImpl:130  link # 32
2015-10-05 14:59:52,478  INFO NetworkImpl:130  link # 64
2015-10-05 14:59:52,482  INFO NetworkImpl:130  link # 128
2015-10-05 14:59:52,488  INFO NetworkImpl:130  link # 256
2015-10-05 14:59:52,492  WARN LinkImpl:111 [from=to=[id=56][coord=[x=1063203.2873370168][y=877613.519849463]][type=null][nof_inlinks=1][nof_outlinks=1] link is a loop]
2015-10-05 14:59:52,492  WARN LinkImpl:113  Future occurences of this logging statement are suppressed.
2015-10-05 14:59:52,492  WARN NodeImpl:98 [id=56][coord=[x=1063203.2873370168][y=877613.519849463]][type=null][nof_inlinks=1][nof_outlinks=2][inlink_id=56-56 is now in- and out-link]
2015-10-05 14:59:52,493  WARN NodeImpl:99  This message given only once.
2015-10-05 14:59:52,501  INFO NetworkImpl:130  link # 512
2015-10-05 14:59:52,521  INFO NetworkImpl:130  link # 1024
2015-10-05 14:59:52,544  INFO NetworkImpl:130  link # 2048
2015-10-05 14:59:52,555  INFO ScenarioLoaderImpl:147 no facilities file set in config, therefore not loading any facilities.  This is not a problem except if you are using facilities
2015-10-05 14:59:52,555  INFO ScenarioLoaderImpl:155 no facility-attributes file set in config, not loading any facility attributes
2015-10-05 14:59:52,555  INFO ScenarioLoaderImpl:162 loading population from ./input/plans_sitm_cali_01.04.2014_troncal.xml
2015-10-05 14:59:52,561  INFO MatsimXmlParser:145 starting to parse xml from file ./input/plans_sitm_cali_01.04.2014_troncal.xml ...
2015-10-05 14:59:52,563  INFO MatsimPopulationReader:86 using population_v5-reader.
2015-10-05 14:59:52,563  INFO MatsimXmlParser:253 Trying to load http://www.matsim.org/files/dtd/population_v5.dtd. In some cases (e.g. network interface up but no connection), this may take a bit.
2015-10-05 14:59:52,922  INFO PopulationImpl:173  person # 1
2015-10-05 14:59:52,924  INFO PopulationImpl:173  person # 2
2015-10-05 14:59:52,926  INFO PopulationImpl:173  person # 4
2015-10-05 14:59:52,929  INFO PopulationImpl:173  person # 8
2015-10-05 14:59:52,932  INFO PopulationImpl:173  person # 16
2015-10-05 14:59:52,937  INFO PopulationImpl:173  person # 32
2015-10-05 14:59:52,946  INFO PopulationImpl:173  person # 64
2015-10-05 14:59:52,958  INFO PopulationImpl:173  person # 128
2015-10-05 14:59:52,971  INFO PopulationImpl:173  person # 256
2015-10-05 14:59:52,989  INFO PopulationImpl:173  person # 512
2015-10-05 14:59:53,009  INFO PopulationImpl:173  person # 1024
2015-10-05 14:59:53,059  INFO PopulationImpl:173  person # 2048
2015-10-05 14:59:53,169  INFO PopulationImpl:173  person # 4096
2015-10-05 14:59:53,364  INFO PopulationImpl:173  person # 8192
2015-10-05 14:59:53,556  INFO PopulationImpl:173  person # 16384
2015-10-05 14:59:53,873  INFO PopulationImpl:173  person # 32768
2015-10-05 14:59:54,343  INFO PopulationImpl:173  person # 59487
2015-10-05 14:59:54,343  INFO ScenarioLoaderImpl:178 no person-attributes file set in config, not loading any person attributes
2015-10-05 14:59:54,344  INFO ScenarioLoaderImpl:190 no households file set in config, not loading households
2015-10-05 14:59:54,344  INFO ScenarioLoaderImpl:198 no household-attributes file set in config, not loading any household attributes
2015-10-05 14:59:54,348 DEBUG MatsimFileTypeGuesser:147 Detected public id: null
2015-10-05 14:59:54,349 DEBUG MatsimFileTypeGuesser:148 Detected system Id: http://www.matsim.org/files/dtd/transitSchedule_v1.dtd
2015-10-05 14:59:54,350  INFO MatsimXmlParser:145 starting to parse xml from file ./input/transitSchedule.xml ...
2015-10-05 14:59:54,353  INFO MatsimXmlParser:253 Trying to load http://www.matsim.org/files/dtd/transitSchedule_v1.dtd. In some cases (e.g. network interface up but no connection), this may take a bit.
2015-10-05 14:59:54,985  INFO ScenarioLoaderImpl:225 loading transit vehicles from ./input/transitVehicles.xml
2015-10-05 14:59:54,987  INFO MatsimXmlParser:145 starting to parse xml from file ./input/transitVehicles.xml ...
2015-10-05 14:59:54,990  INFO MatsimXmlParser:253 Trying to load http://www.matsim.org/files/dtd/vehicleDefinitions_v1.0.xsd. In some cases (e.g. network interface up but no connection), this may take a bit.
2015-10-05 14:59:55,672  INFO MatsimXmlParser:253 Trying to load http://www.matsim.org/files/dtd/matsimCommon.xsd. In some cases (e.g. network interface up but no connection), this may take a bit.
2015-10-05 14:59:56,358  INFO MatsimXmlParser:253 Trying to load http://www.matsim.org/files/dtd/vehicleDefinitionsEnumTypes.xsd. In some cases (e.g. network interface up but no connection), this may take a bit.
2015-10-05 14:59:56,826  INFO Counter:51  vehicles # 1
2015-10-05 14:59:56,827  INFO Counter:51  vehicles # 2
2015-10-05 14:59:56,828  INFO Counter:51  vehicles # 4
2015-10-05 14:59:56,828  INFO Counter:51  vehicles # 8
2015-10-05 14:59:56,829  INFO Counter:51  vehicles # 16
2015-10-05 14:59:56,831  INFO Counter:51  vehicles # 32
2015-10-05 14:59:56,834  INFO Counter:51  vehicles # 64
2015-10-05 14:59:56,856  INFO Controler:228 setting up transit simulation
2015-10-05 14:59:57,413  INFO Injector:80 org.matsim.core.router.util.TravelTime
2015-10-05 14:59:57,413  INFO Injector:82    -> of(edu.univalle.brt.network.FelisTravelTime@6af93788)
2015-10-05 14:59:57,413  INFO Injector:80 org.matsim.core.controler.corelisteners.PlansScoring
2015-10-05 14:59:57,415  INFO Injector:82    -> FactoryProxy{key=Key[type=org.matsim.core.controler.corelisteners.PlansScoring, annotation=[none]], provider=com.google.inject.internal.ConstructorBindingImpl$Factory@10e92f8f[Scopes.SINGLETON]}
2015-10-05 14:59:57,415  INFO Injector:80 org.matsim.core.controler.corelisteners.PlansReplanning
2015-10-05 14:59:57,415  INFO Injector:82    -> FactoryProxy{key=Key[type=org.matsim.core.controler.corelisteners.PlansReplanning, annotation=[none]], provider=com.google.inject.internal.ConstructorBindingImpl$Factory@5223e5ee[Scopes.SINGLETON]}
2015-10-05 14:59:57,416  INFO Injector:80 org.matsim.core.controler.corelisteners.PlansDumping
2015-10-05 14:59:57,416  INFO Injector:82    -> FactoryProxy{key=Key[type=org.matsim.core.controler.corelisteners.PlansDumping, annotation=[none]], provider=com.google.inject.internal.ConstructorBindingImpl$Factory@22a637e7[Scopes.SINGLETON]}
2015-10-05 14:59:57,416  INFO Injector:80 org.matsim.core.controler.corelisteners.EventsHandling
2015-10-05 14:59:57,416  INFO Injector:82    -> FactoryProxy{key=Key[type=org.matsim.core.controler.corelisteners.EventsHandling, annotation=[none]], provider=com.google.inject.internal.ConstructorBindingImpl$Factory@659a969b[Scopes.SINGLETON]}
2015-10-05 14:59:57,416  INFO Injector:80 org.matsim.core.controler.corelisteners.DumpDataAtEnd
2015-10-05 14:59:57,416  INFO Injector:82    -> FactoryProxy{key=Key[type=org.matsim.core.controler.corelisteners.DumpDataAtEnd, annotation=[none]], provider=com.google.inject.internal.ConstructorBindingImpl$Factory@35047d03[Scopes.SINGLETON]}
2015-10-05 14:59:57,416  INFO Injector:80 org.matsim.core.mobsim.framework.Mobsim
2015-10-05 14:59:57,417  INFO Injector:82    -> Key[type=org.matsim.core.mobsim.qsim.QSimProvider, annotation=[none]]
2015-10-05 14:59:57,417  INFO Injector:80 org.matsim.api.core.v01.network.Network
2015-10-05 14:59:57,417  INFO Injector:82    -> Key[type=org.matsim.core.scenario.ScenarioElementsModule$NetworkProvider, annotation=[none]]
2015-10-05 14:59:57,417  INFO Injector:80 org.matsim.api.core.v01.population.Population
2015-10-05 14:59:57,417  INFO Injector:82    -> Key[type=org.matsim.core.scenario.ScenarioElementsModule$PopulationProvider, annotation=[none]]
2015-10-05 14:59:57,417  INFO Injector:80 org.matsim.pt.transitSchedule.api.TransitSchedule
2015-10-05 14:59:57,417  INFO Injector:82    -> Key[type=org.matsim.core.scenario.ScenarioElementsModule$TransitScheduleProvider, annotation=[none]]
2015-10-05 14:59:57,417  INFO Injector:80 org.matsim.core.trafficmonitoring.TravelTimeCalculator
2015-10-05 14:59:57,417  INFO Injector:82    -> Key[type=org.matsim.core.trafficmonitoring.TravelTimeCalculatorModule$TravelTimeCalculatorProvider, annotation=[none]][Scopes.SINGLETON]
2015-10-05 14:59:57,418  INFO Injector:80 org.matsim.core.events.handler.EventHandler
2015-10-05 14:59:57,418  INFO Injector:82    -> FactoryProxy{key=Key[type=org.matsim.core.events.handler.EventHandler, annotation=@com.google.inject.multibindings.Element(setName=,uniqueId=2, type=MULTIBINDER, keyType=)], provider=Key[type=org.matsim.core.trafficmonitoring.TravelTimeCalculatorModule$TravelTimeCalculatorProvider, annotation=[none]][Scopes.SINGLETON]}
2015-10-05 14:59:57,418  INFO Injector:80 org.matsim.core.router.util.TravelTime
2015-10-05 14:59:57,418  INFO Injector:82    -> FactoryProxy{key=Key[type=org.matsim.core.router.util.TravelTime, annotation=@com.google.inject.multibindings.Element(setName=,uniqueId=3, type=MAPBINDER, keyType=java.lang.String)], provider=Key[type=org.matsim.core.trafficmonitoring.TravelTimeCalculatorModule$FromTravelTimeCalculator, annotation=[none]]}
2015-10-05 14:59:57,418  INFO Injector:80 org.matsim.core.router.util.TravelTime
2015-10-05 14:59:57,418  INFO Injector:82    -> Key[type=org.matsim.core.trafficmonitoring.TravelTimeCalculatorModule$FromTravelTimeCalculator, annotation=[none]]
2015-10-05 14:59:57,418  INFO Injector:80 org.matsim.core.router.util.LinkToLinkTravelTime
2015-10-05 14:59:57,418  INFO Injector:82    -> Key[type=org.matsim.core.trafficmonitoring.TravelTimeCalculatorModule$LinkToLinkTravelTimeProvider, annotation=[none]]
2015-10-05 14:59:57,418  INFO Injector:80 org.matsim.core.router.costcalculators.TravelDisutilityFactory
2015-10-05 14:59:57,419  INFO Injector:82    -> FactoryProxy{key=Key[type=org.matsim.core.router.costcalculators.TravelDisutilityFactory, annotation=@com.google.inject.multibindings.Element(setName=,uniqueId=5, type=MAPBINDER, keyType=java.lang.String)], provider=FactoryProxy{key=Key[type=org.matsim.core.router.costcalculators.TravelDisutilityFactory, annotation=@org.matsim.core.controler.AbstractModule$ForCar], provider=com.google.inject.internal.ConstructorBindingImpl$Factory@703580bf}[Scopes.SINGLETON]}
2015-10-05 14:59:57,419  INFO Injector:80 org.matsim.core.router.costcalculators.TravelDisutilityFactory
2015-10-05 14:59:57,419  INFO Injector:82    -> FactoryProxy{key=Key[type=org.matsim.core.router.costcalculators.TravelDisutilityFactory, annotation=@org.matsim.core.controler.AbstractModule$ForCar], provider=com.google.inject.internal.ConstructorBindingImpl$Factory@703580bf}[Scopes.SINGLETON]
2015-10-05 14:59:57,419  INFO Injector:80 org.matsim.core.scoring.ScoringFunctionFactory
2015-10-05 14:59:57,419  INFO Injector:82    -> org.matsim.core.scoring.functions.CharyparNagelScoringFunctionModule$1@70e8f8e
2015-10-05 14:59:57,419  INFO Injector:80 org.matsim.core.router.util.LeastCostPathCalculatorFactory
2015-10-05 14:59:57,419  INFO Injector:82    -> FactoryProxy{key=Key[type=org.matsim.core.router.util.LeastCostPathCalculatorFactory, annotation=[none]], provider=com.google.inject.internal.ConstructorBindingImpl$Factory@29626d54[Scopes.SINGLETON]}
2015-10-05 14:59:57,419  INFO Injector:80 org.matsim.pt.router.TransitRouter
2015-10-05 14:59:57,419  INFO Injector:82    -> Key[type=org.matsim.pt.router.TransitRouterImplFactory, annotation=[none]]
2015-10-05 14:59:57,419  INFO Injector:80 org.matsim.core.router.TripRouterFactory
2015-10-05 14:59:57,420  INFO Injector:82    -> FactoryProxy{key=Key[type=org.matsim.core.router.TripRouterFactory, annotation=[none]], provider=com.google.inject.internal.ConstructorBindingImpl$Factory@4b0b0854}[Scopes.SINGLETON]
2015-10-05 14:59:57,420  INFO Injector:80 org.matsim.core.router.TripRouter
2015-10-05 14:59:57,420  INFO Injector:82    -> Key[type=org.matsim.core.router.TripRouterModule$RealTripRouterProvider, annotation=[none]]
2015-10-05 14:59:57,420  INFO Injector:80 org.matsim.core.replanning.selectors.GenericPlanSelector<org.matsim.api.core.v01.population.Plan, org.matsim.api.core.v01.population.Person>
2015-10-05 14:59:57,420  INFO Injector:82    -> FactoryProxy{key=Key[type=org.matsim.core.replanning.selectors.GenericPlanSelector<org.matsim.api.core.v01.population.Plan, org.matsim.api.core.v01.population.Person>, annotation=@com.google.inject.multibindings.Element(setName=,uniqueId=7, type=MAPBINDER, keyType=java.lang.String)], provider=com.google.inject.internal.ConstructorBindingImpl$Factory@67a20f67}
2015-10-05 14:59:57,420  INFO Injector:80 org.matsim.core.replanning.selectors.GenericPlanSelector<org.matsim.api.core.v01.population.Plan, org.matsim.api.core.v01.population.Person>
2015-10-05 14:59:57,420  INFO Injector:82    -> FactoryProxy{key=Key[type=org.matsim.core.replanning.selectors.GenericPlanSelector<org.matsim.api.core.v01.population.Plan, org.matsim.api.core.v01.population.Person>, annotation=@com.google.inject.multibindings.Element(setName=,uniqueId=9, type=MAPBINDER, keyType=java.lang.String)], provider=com.google.inject.internal.ConstructorBindingImpl$Factory@13e39c73}
2015-10-05 14:59:57,420  INFO Injector:80 org.matsim.core.replanning.selectors.GenericPlanSelector<org.matsim.api.core.v01.population.Plan, org.matsim.api.core.v01.population.Person>
2015-10-05 14:59:57,420  INFO Injector:82    -> Key[type=org.matsim.core.replanning.DefaultPlanStrategiesModule$ExpBetaPlanSelectorForRemoval, annotation=[none]]
2015-10-05 14:59:57,421  INFO Injector:80 org.matsim.core.replanning.selectors.GenericPlanSelector<org.matsim.api.core.v01.population.Plan, org.matsim.api.core.v01.population.Person>
2015-10-05 14:59:57,421  INFO Injector:82    -> Key[type=org.matsim.core.replanning.DefaultPlanStrategiesModule$ExpBetaPlanChangerForRemoval, annotation=[none]]
2015-10-05 14:59:57,421  INFO Injector:80 org.matsim.core.replanning.selectors.GenericPlanSelector<org.matsim.api.core.v01.population.Plan, org.matsim.api.core.v01.population.Person>
2015-10-05 14:59:57,421  INFO Injector:82    -> Key[type=org.matsim.core.replanning.DefaultPlanStrategiesModule$PathSizeLogitSelectorForRemoval, annotation=[none]]
2015-10-05 14:59:57,421  INFO Injector:80 org.matsim.core.replanning.PlanStrategy
2015-10-05 14:59:57,421  INFO Injector:82    -> Key[type=org.matsim.core.replanning.modules.KeepLastSelectedPlanStrategyFactory, annotation=[none]]
2015-10-05 14:59:57,421  INFO Injector:80 org.matsim.core.replanning.PlanStrategy
2015-10-05 14:59:57,422  INFO Injector:82    -> Key[type=org.matsim.core.replanning.modules.SelectBestPlanStrategyFactory, annotation=[none]]
2015-10-05 14:59:57,422  INFO Injector:80 org.matsim.core.replanning.PlanStrategy
2015-10-05 14:59:57,422  INFO Injector:82    -> Key[type=org.matsim.core.replanning.modules.SelectExpBetaPlanStrategyFactory, annotation=[none]]
2015-10-05 14:59:57,422  INFO Injector:80 org.matsim.core.replanning.PlanStrategy
2015-10-05 14:59:57,422  INFO Injector:82    -> Key[type=org.matsim.core.replanning.modules.ChangeExpBetaPlanStrategyFactory, annotation=[none]]
2015-10-05 14:59:57,422  INFO Injector:80 org.matsim.core.replanning.PlanStrategy
2015-10-05 14:59:57,422  INFO Injector:82    -> Key[type=org.matsim.core.replanning.modules.SelectRandomStrategyFactory, annotation=[none]]
2015-10-05 14:59:57,422  INFO Injector:80 org.matsim.core.replanning.PlanStrategy
2015-10-05 14:59:57,423  INFO Injector:82    -> Key[type=org.matsim.core.replanning.modules.SelectPathSizeLogitStrategyFactory, annotation=[none]]
2015-10-05 14:59:57,423  INFO Injector:80 org.matsim.core.replanning.PlanStrategy
2015-10-05 14:59:57,423  INFO Injector:82    -> Key[type=org.matsim.core.replanning.modules.ReRoutePlanStrategyFactory, annotation=[none]]
2015-10-05 14:59:57,423  INFO Injector:80 org.matsim.core.replanning.PlanStrategy
2015-10-05 14:59:57,423  INFO Injector:82    -> Key[type=org.matsim.core.replanning.modules.TimeAllocationMutatorPlanStrategyFactory, annotation=[none]]
2015-10-05 14:59:57,423  INFO Injector:80 org.matsim.core.replanning.PlanStrategy
2015-10-05 14:59:57,423  INFO Injector:82    -> Key[type=org.matsim.core.replanning.modules.TimeAllocationMutatorReRoutePlanStrategyFactory, annotation=[none]]
2015-10-05 14:59:57,423  INFO Injector:80 org.matsim.core.replanning.PlanStrategy
2015-10-05 14:59:57,424  INFO Injector:82    -> Key[type=org.matsim.core.replanning.modules.ChangeSingleLegModeStrategyFactory, annotation=[none]]
2015-10-05 14:59:57,424  INFO Injector:80 org.matsim.core.replanning.PlanStrategy
2015-10-05 14:59:57,424  INFO Injector:82    -> Key[type=org.matsim.core.replanning.modules.ChangeLegModeStrategyFactory, annotation=[none]]
2015-10-05 14:59:57,424  INFO Injector:80 org.matsim.core.replanning.PlanStrategy
2015-10-05 14:59:57,424  INFO Injector:82    -> Key[type=org.matsim.core.replanning.modules.SubtourModeChoiceStrategyFactory, annotation=[none]]
2015-10-05 14:59:57,424  INFO Injector:80 org.matsim.core.replanning.PlanStrategy
2015-10-05 14:59:57,424  INFO Injector:82    -> Key[type=org.matsim.core.replanning.modules.ChangeTripModeStrategyFactory, annotation=[none]]
2015-10-05 14:59:57,424  INFO Injector:80 org.matsim.core.replanning.PlanStrategy
2015-10-05 14:59:57,424  INFO Injector:82    -> Key[type=org.matsim.core.replanning.modules.ChangeSingleTripModeStrategyFactory, annotation=[none]]
2015-10-05 14:59:57,425  INFO Injector:80 org.matsim.core.replanning.PlanStrategy
2015-10-05 14:59:57,425  INFO Injector:82    -> Key[type=org.matsim.core.replanning.modules.TripSubtourModeChoiceStrategyFactory, annotation=[none]]
2015-10-05 14:59:57,425  INFO Injector:80 org.matsim.core.replanning.StrategyManager
2015-10-05 14:59:57,425  INFO Injector:82    -> Key[type=org.matsim.core.replanning.StrategyManagerModule$StrategyManagerProvider, annotation=[none]][Scopes.SINGLETON]
2015-10-05 14:59:57,425  INFO Injector:80 org.matsim.core.replanning.ReplanningContext
2015-10-05 14:59:57,425  INFO Injector:82    -> FactoryProxy{key=Key[type=org.matsim.core.replanning.ReplanningContext, annotation=[none]], provider=com.google.inject.internal.ConstructorBindingImpl$Factory@72f926e6}
2015-10-05 14:59:57,425  INFO Injector:80 org.matsim.analysis.CalcLinkStats
2015-10-05 14:59:57,426  INFO Injector:82    -> Key[type=org.matsim.analysis.LinkStatsModule$CalcLinkStatsProvider, annotation=[none]][Scopes.SINGLETON]
2015-10-05 14:59:57,426  INFO Injector:80 org.matsim.core.controler.listener.ControlerListener
2015-10-05 14:59:57,426  INFO Injector:82    -> FactoryProxy{key=Key[type=org.matsim.core.controler.listener.ControlerListener, annotation=@com.google.inject.multibindings.Element(setName=,uniqueId=47, type=MULTIBINDER, keyType=)], provider=com.google.inject.internal.ConstructorBindingImpl$Factory@481a996b}
2015-10-05 14:59:57,426  INFO Injector:80 org.matsim.analysis.VolumesAnalyzer
2015-10-05 14:59:57,426  INFO Injector:82    -> Key[type=org.matsim.analysis.VolumesAnalyzerModule$VolumesAnalyzerProvider, annotation=[none]][Scopes.SINGLETON]
2015-10-05 14:59:57,426  INFO Injector:80 org.matsim.core.events.handler.EventHandler
2015-10-05 14:59:57,426  INFO Injector:82    -> FactoryProxy{key=Key[type=org.matsim.core.events.handler.EventHandler, annotation=@com.google.inject.multibindings.Element(setName=,uniqueId=48, type=MULTIBINDER, keyType=)], provider=Key[type=org.matsim.analysis.VolumesAnalyzerModule$VolumesAnalyzerProvider, annotation=[none]][Scopes.SINGLETON]}
2015-10-05 14:59:57,427  INFO Injector:80 org.matsim.core.controler.listener.ControlerListener
2015-10-05 14:59:57,427  INFO Injector:82    -> FactoryProxy{key=Key[type=org.matsim.core.controler.listener.ControlerListener, annotation=@com.google.inject.multibindings.Element(setName=,uniqueId=49, type=MULTIBINDER, keyType=)], provider=com.google.inject.internal.ConstructorBindingImpl$Factory@3c407114}
2015-10-05 14:59:57,427  INFO Injector:80 org.matsim.core.events.handler.EventHandler
2015-10-05 14:59:57,427  INFO Injector:82    -> FactoryProxy{key=Key[type=org.matsim.core.events.handler.EventHandler, annotation=@com.google.inject.multibindings.Element(setName=,uniqueId=50, type=MULTIBINDER, keyType=)], provider=com.google.inject.internal.ConstructorBindingImpl$Factory@130161f7[Scopes.SINGLETON]}
2015-10-05 14:59:57,427  INFO Injector:80 org.matsim.core.controler.listener.ControlerListener
2015-10-05 14:59:57,427  INFO Injector:82    -> FactoryProxy{key=Key[type=org.matsim.core.controler.listener.ControlerListener, annotation=@com.google.inject.multibindings.Element(setName=,uniqueId=51, type=MULTIBINDER, keyType=)], provider=com.google.inject.internal.ConstructorBindingImpl$Factory@708f5957}
2015-10-05 14:59:57,427  INFO Injector:80 org.matsim.core.controler.listener.ControlerListener
2015-10-05 14:59:57,427  INFO Injector:82    -> FactoryProxy{key=Key[type=org.matsim.core.controler.listener.ControlerListener, annotation=@com.google.inject.multibindings.Element(setName=,uniqueId=52, type=MULTIBINDER, keyType=)], provider=com.google.inject.internal.ConstructorBindingImpl$Factory@2ef3eef9[Scopes.SINGLETON]}
2015-10-05 14:59:57,428  INFO Injector:80 org.matsim.analysis.ScoreStats
2015-10-05 14:59:57,428  INFO Injector:82    -> FactoryProxy{key=Key[type=org.matsim.analysis.ScoreStats, annotation=[none]], provider=com.google.inject.internal.ConstructorBindingImpl$Factory@2ef3eef9[Scopes.SINGLETON]}
2015-10-05 14:59:57,428  INFO Injector:80 org.matsim.core.controler.listener.ControlerListener
2015-10-05 14:59:57,428  INFO Injector:82    -> FactoryProxy{key=Key[type=org.matsim.core.controler.listener.ControlerListener, annotation=@com.google.inject.multibindings.Element(setName=,uniqueId=53, type=MULTIBINDER, keyType=)], provider=com.google.inject.internal.ConstructorBindingImpl$Factory@16ec5519}
2015-10-05 14:59:57,428  INFO Injector:80 org.matsim.core.controler.listener.ControlerListener
2015-10-05 14:59:57,428  INFO Injector:82    -> FactoryProxy{key=Key[type=org.matsim.core.controler.listener.ControlerListener, annotation=@com.google.inject.multibindings.Element(setName=,uniqueId=54, type=MULTIBINDER, keyType=)], provider=com.google.inject.internal.ConstructorBindingImpl$Factory@1ea9f6af}
2015-10-05 14:59:57,428  INFO Injector:80 org.matsim.core.controler.OutputDirectoryHierarchy
2015-10-05 14:59:57,428  INFO Injector:82    -> of(org.matsim.core.controler.OutputDirectoryHierarchy@7193666c)
2015-10-05 14:59:57,428  INFO Injector:80 org.matsim.analysis.IterationStopWatch
2015-10-05 14:59:57,428  INFO Injector:82    -> of(org.matsim.analysis.IterationStopWatch@1dde4cb2)
2015-10-05 14:59:57,428  INFO Injector:80 org.matsim.api.core.v01.Scenario
2015-10-05 14:59:57,429  INFO Injector:82    -> of(org.matsim.core.scenario.ScenarioImpl@393671df)
2015-10-05 14:59:57,429  INFO Injector:80 org.matsim.core.api.experimental.events.EventsManager
2015-10-05 14:59:57,429  INFO Injector:82    -> of(org.matsim.core.events.SimStepParallelEventsManagerImpl@55b7a4e0)
2015-10-05 14:59:57,429  INFO Injector:80 org.matsim.analysis.LegHistogram
2015-10-05 14:59:57,429  INFO Injector:82    -> com.google.inject.internal.ConstructorBindingImpl$Factory@72057ecf
2015-10-05 14:59:57,429  INFO Injector:80 org.matsim.analysis.CalcLegTimes
2015-10-05 14:59:57,429  INFO Injector:82    -> com.google.inject.internal.ConstructorBindingImpl$Factory@130161f7[Scopes.SINGLETON]
2015-10-05 14:59:57,429  INFO Injector:80 org.matsim.analysis.ScoreStatsControlerListener
2015-10-05 14:59:57,430  INFO Injector:82    -> com.google.inject.internal.ConstructorBindingImpl$Factory@2ef3eef9[Scopes.SINGLETON]
2015-10-05 14:59:57,464  INFO StrategyManagerConfigLoader:63 global innovation switch off after iteration: 2147483647
2015-10-05 14:59:57,466  INFO GenericStrategyManager:313 added change request:  iteration=-2147483648 newWeight=0.0 strategy=RandomPlanSelector_ReRoute
2015-10-05 14:59:57,466  INFO GenericStrategyManager:313 added change request:  iteration=-2147483648 newWeight=0.0 strategy=RandomPlanSelector_TimeAllocationMutator
2015-10-05 14:59:57,466  INFO GenericStrategyManager:345 setting PlanSelectorForRemoval to class org.matsim.core.replanning.selectors.WorstPlanForRemovalSelector
2015-10-05 14:59:57,475  INFO EventsManagerImpl:144 adding Event-Handler: org.matsim.core.trafficmonitoring.TravelTimeCalculator
2015-10-05 14:59:57,475  INFO EventsManagerImpl:148   org.matsim.api.core.v01.events.handler.LinkEnterEventHandler
2015-10-05 14:59:57,476  INFO EventsManagerImpl:207     > org.matsim.api.core.v01.events.LinkEnterEvent
2015-10-05 14:59:57,477  INFO EventsManagerImpl:148   org.matsim.api.core.v01.events.handler.LinkLeaveEventHandler
2015-10-05 14:59:57,478  INFO EventsManagerImpl:207     > org.matsim.api.core.v01.events.LinkLeaveEvent
2015-10-05 14:59:57,478  INFO EventsManagerImpl:148   org.matsim.api.core.v01.events.handler.Wait2LinkEventHandler
2015-10-05 14:59:57,479  INFO EventsManagerImpl:207     > org.matsim.api.core.v01.events.Wait2LinkEvent
2015-10-05 14:59:57,479  INFO EventsManagerImpl:148   org.matsim.api.core.v01.events.handler.VehicleLeavesTrafficEventHandler
2015-10-05 14:59:57,479  INFO EventsManagerImpl:207     > org.matsim.api.core.v01.events.VehicleLeavesTrafficEvent
2015-10-05 14:59:57,480  INFO EventsManagerImpl:148   org.matsim.core.api.experimental.events.handler.VehicleArrivesAtFacilityEventHandler
2015-10-05 14:59:57,480  INFO EventsManagerImpl:207     > org.matsim.core.api.experimental.events.VehicleArrivesAtFacilityEvent
2015-10-05 14:59:57,480  INFO EventsManagerImpl:148   org.matsim.api.core.v01.events.handler.VehicleAbortsEventHandler
2015-10-05 14:59:57,481  INFO EventsManagerImpl:207     > org.matsim.api.core.v01.events.VehicleAbortsEvent
2015-10-05 14:59:57,481  INFO EventsManagerImpl:156 
2015-10-05 14:59:57,481  INFO EventsManagerImpl:144 adding Event-Handler: org.matsim.core.trafficmonitoring.TravelTimeCalculator
2015-10-05 14:59:57,481  INFO EventsManagerImpl:148   org.matsim.api.core.v01.events.handler.LinkEnterEventHandler
2015-10-05 14:59:57,482  INFO EventsManagerImpl:207     > org.matsim.api.core.v01.events.LinkEnterEvent
2015-10-05 14:59:57,482  INFO EventsManagerImpl:148   org.matsim.api.core.v01.events.handler.LinkLeaveEventHandler
2015-10-05 14:59:57,482  INFO EventsManagerImpl:207     > org.matsim.api.core.v01.events.LinkLeaveEvent
2015-10-05 14:59:57,482  INFO EventsManagerImpl:148   org.matsim.api.core.v01.events.handler.Wait2LinkEventHandler
2015-10-05 14:59:57,482  INFO EventsManagerImpl:207     > org.matsim.api.core.v01.events.Wait2LinkEvent
2015-10-05 14:59:57,482  INFO EventsManagerImpl:148   org.matsim.api.core.v01.events.handler.VehicleLeavesTrafficEventHandler
2015-10-05 14:59:57,482  INFO EventsManagerImpl:207     > org.matsim.api.core.v01.events.VehicleLeavesTrafficEvent
2015-10-05 14:59:57,482  INFO EventsManagerImpl:148   org.matsim.core.api.experimental.events.handler.VehicleArrivesAtFacilityEventHandler
2015-10-05 14:59:57,482  INFO EventsManagerImpl:207     > org.matsim.core.api.experimental.events.VehicleArrivesAtFacilityEvent
2015-10-05 14:59:57,482  INFO EventsManagerImpl:148   org.matsim.api.core.v01.events.handler.VehicleAbortsEventHandler
2015-10-05 14:59:57,482  INFO EventsManagerImpl:207     > org.matsim.api.core.v01.events.VehicleAbortsEvent
2015-10-05 14:59:57,482  INFO EventsManagerImpl:156 
2015-10-05 14:59:57,482  INFO EventsManagerImpl:144 adding Event-Handler: org.matsim.analysis.VolumesAnalyzer
2015-10-05 14:59:57,483  INFO EventsManagerImpl:148   org.matsim.api.core.v01.events.handler.LinkLeaveEventHandler
2015-10-05 14:59:57,483  INFO EventsManagerImpl:207     > org.matsim.api.core.v01.events.LinkLeaveEvent
2015-10-05 14:59:57,483  INFO EventsManagerImpl:148   org.matsim.api.core.v01.events.handler.PersonDepartureEventHandler
2015-10-05 14:59:57,483  INFO EventsManagerImpl:207     > org.matsim.api.core.v01.events.PersonDepartureEvent
2015-10-05 14:59:57,483  INFO EventsManagerImpl:156 
2015-10-05 14:59:57,483  INFO EventsManagerImpl:144 adding Event-Handler: org.matsim.analysis.VolumesAnalyzer
2015-10-05 14:59:57,483  INFO EventsManagerImpl:148   org.matsim.api.core.v01.events.handler.LinkLeaveEventHandler
2015-10-05 14:59:57,483  INFO EventsManagerImpl:207     > org.matsim.api.core.v01.events.LinkLeaveEvent
2015-10-05 14:59:57,483  INFO EventsManagerImpl:148   org.matsim.api.core.v01.events.handler.PersonDepartureEventHandler
2015-10-05 14:59:57,483  INFO EventsManagerImpl:207     > org.matsim.api.core.v01.events.PersonDepartureEvent
2015-10-05 14:59:57,483  INFO EventsManagerImpl:156 
2015-10-05 14:59:57,483  INFO EventsManagerImpl:144 adding Event-Handler: org.matsim.analysis.CalcLegTimes
2015-10-05 14:59:57,483  INFO EventsManagerImpl:148   org.matsim.api.core.v01.events.handler.PersonDepartureEventHandler
2015-10-05 14:59:57,483  INFO EventsManagerImpl:207     > org.matsim.api.core.v01.events.PersonDepartureEvent
2015-10-05 14:59:57,484  INFO EventsManagerImpl:148   org.matsim.api.core.v01.events.handler.PersonArrivalEventHandler
2015-10-05 14:59:57,484  INFO EventsManagerImpl:207     > org.matsim.api.core.v01.events.PersonArrivalEvent
2015-10-05 14:59:57,484  INFO EventsManagerImpl:148   org.matsim.api.core.v01.events.handler.ActivityEndEventHandler
2015-10-05 14:59:57,484  INFO EventsManagerImpl:207     > org.matsim.api.core.v01.events.ActivityEndEvent
2015-10-05 14:59:57,484  INFO EventsManagerImpl:148   org.matsim.api.core.v01.events.handler.ActivityStartEventHandler
2015-10-05 14:59:57,484  INFO EventsManagerImpl:207     > org.matsim.api.core.v01.events.ActivityStartEvent
2015-10-05 14:59:57,484  INFO EventsManagerImpl:156 
2015-10-05 14:59:57,484  INFO EventsManagerImpl:144 adding Event-Handler: org.matsim.analysis.CalcLegTimes
2015-10-05 14:59:57,484  INFO EventsManagerImpl:148   org.matsim.api.core.v01.events.handler.PersonDepartureEventHandler
2015-10-05 14:59:57,484  INFO EventsManagerImpl:207     > org.matsim.api.core.v01.events.PersonDepartureEvent
2015-10-05 14:59:57,485  INFO EventsManagerImpl:148   org.matsim.api.core.v01.events.handler.PersonArrivalEventHandler
2015-10-05 14:59:57,485  INFO EventsManagerImpl:207     > org.matsim.api.core.v01.events.PersonArrivalEvent
2015-10-05 14:59:57,485  INFO EventsManagerImpl:148   org.matsim.api.core.v01.events.handler.ActivityEndEventHandler
2015-10-05 14:59:57,485  INFO EventsManagerImpl:207     > org.matsim.api.core.v01.events.ActivityEndEvent
2015-10-05 14:59:57,485  INFO EventsManagerImpl:148   org.matsim.api.core.v01.events.handler.ActivityStartEventHandler
2015-10-05 14:59:57,485  INFO EventsManagerImpl:207     > org.matsim.api.core.v01.events.ActivityStartEvent
2015-10-05 14:59:57,485  INFO EventsManagerImpl:156 
2015-10-05 14:59:57,486  INFO CalcLinkStats:148  resetting `count' to zero.  This info is here since we want to check when this is happening during normal simulation runs.  kai, jan'11
2015-10-05 14:59:57,494  INFO EventsManagerImpl:144 adding Event-Handler: org.matsim.analysis.LegHistogram
2015-10-05 14:59:57,494  INFO EventsManagerImpl:148   org.matsim.api.core.v01.events.handler.PersonDepartureEventHandler
2015-10-05 14:59:57,494  INFO EventsManagerImpl:207     > org.matsim.api.core.v01.events.PersonDepartureEvent
2015-10-05 14:59:57,494  INFO EventsManagerImpl:148   org.matsim.api.core.v01.events.handler.PersonArrivalEventHandler
2015-10-05 14:59:57,495  INFO EventsManagerImpl:207     > org.matsim.api.core.v01.events.PersonArrivalEvent
2015-10-05 14:59:57,495  INFO EventsManagerImpl:148   org.matsim.api.core.v01.events.handler.PersonStuckEventHandler
2015-10-05 14:59:57,495  INFO EventsManagerImpl:207     > org.matsim.api.core.v01.events.PersonStuckEvent
2015-10-05 14:59:57,495  INFO EventsManagerImpl:156 
2015-10-05 14:59:57,495  INFO EventsManagerImpl:144 adding Event-Handler: org.matsim.analysis.LegHistogram
2015-10-05 14:59:57,495  INFO EventsManagerImpl:148   org.matsim.api.core.v01.events.handler.PersonDepartureEventHandler
2015-10-05 14:59:57,496  INFO EventsManagerImpl:207     > org.matsim.api.core.v01.events.PersonDepartureEvent
2015-10-05 14:59:57,496  INFO EventsManagerImpl:148   org.matsim.api.core.v01.events.handler.PersonArrivalEventHandler
2015-10-05 14:59:57,496  INFO EventsManagerImpl:207     > org.matsim.api.core.v01.events.PersonArrivalEvent
2015-10-05 14:59:57,496  INFO EventsManagerImpl:148   org.matsim.api.core.v01.events.handler.PersonStuckEventHandler
2015-10-05 14:59:57,496  INFO EventsManagerImpl:207     > org.matsim.api.core.v01.events.PersonStuckEvent
2015-10-05 14:59:57,496  INFO EventsManagerImpl:156 
2015-10-05 14:59:57,498  INFO ControlerListenerManager:108 calling notifyStartup on org.matsim.counts.CountsControlerListener
2015-10-05 14:59:57,498  INFO ControlerListenerManager:108 calling notifyStartup on org.matsim.analysis.ScoreStatsControlerListener
2015-10-05 14:59:57,498  INFO ControlerListenerManager:111 all ControlerStartupListeners called.
2015-10-05 14:59:57,499  INFO ControlerUtils:57 config dump before iterations start
2015-10-05 14:59:57,511  INFO ControlerUtils:61 

<?xml version="1.0" encoding="UTF-8"?>
<!DOCTYPE config SYSTEM "http://www.matsim.org/files/dtd/config_v2.dtd">
<config>

<!-- ====================================================================== -->

	<module name="TimeAllocationMutator" >
		<param name="mutationAffectsDuration" value="true" />

		<!-- Default:1800.0; Defines how many seconds a time mutation can maximally shift a time. -->
		<param name="mutationRange" value="1800.0" />
	</module>

<!-- ====================================================================== -->

	<module name="controler" >

		<!-- Sets whether graphs showing some analyses should automatically be generated during the simulation. The generation of graphs usually takes a small amount of time that does not have any weight in big simulations, but add a significant overhead in smaller runs or in test cases where the graphical output is not even requested. -->
		<param name="createGraphs" value="true" />

		<!-- Default=false;  -->
		<param name="enableLinkToLinkRouting" value="false" />

		<!-- Default=xml; Specifies the file format for writing events. Currently supported: txt, xml.
		Multiple values can be specified separated by commas (','). -->
		<param name="eventsFileFormat" value="xml" />

		<!-- Default=0;  -->
		<param name="firstIteration" value="0" />

		<!-- Default=1000;  -->
		<param name="lastIteration" value="1" />

		<!-- Defines which mobility simulation will be used. Currently supported: qsim JDEQSim 
		Depending on the chosen mobsim, you'll have to add additional config modules to configure the corresponding mobsim.
		For 'qsim', add a module 'qsim' to the config. -->
		<param name="mobsim" value="qsim" />

		<param name="outputDirectory" value="./output" />

		<!-- Possible values: failIfDirectoryExists, overwriteExistingFiles, deleteDirectoryIfExists -->
		<param name="overwriteFiles" value="failIfDirectoryExists" />

		<!-- The type of routing (least cost path) algorithm used, may have the values: Dijkstra, FastDijkstra, AStarLandmarks or FastAStarLandmarks -->
		<param name="routingAlgorithmType" value="Dijkstra" />

		<!-- An identifier for the current run which is used as prefix for output files and mentioned in output xml files etc. -->
		<param name="runId" value="null" />

		<!-- Comma-separated list of visualizer output file formats. `transims', `googleearth', and `otfvis'. -->
		<param name="snapshotFormat" value="" />

		<!-- iterationNumber % writeEventsInterval == 0 defines in which iterations events are written to a file. `0' disables events writing completely. -->
		<param name="writeEventsInterval" value="1" />

		<!-- iterationNumber % writePlansInterval == 0 defines (hopefully) in which iterations plans are written to a file. `0' disables plans writing completely.  Some plans in early iterations are always written -->
		<param name="writePlansInterval" value="1" />

		<!-- iterationNumber % writeSnapshotsInterval == 0 defines in which iterations snapshots are written to a file. `0' disables snapshots writing completely -->
		<param name="writeSnapshotsInterval" value="0" />
	</module>

<!-- ====================================================================== -->

	<module name="counts" >

		<!-- Transport modes that will be respected for the counts comparison. 'car' is default, which includes also bussed from the pt simulation module. Use this parameter in combination with 'filterModes' = true! -->
		<param name="analyzedModes" value="car" />

		<!-- Specifies over how many iterations the link volumes should be averaged that are used for the counts comparison. Use 1 or 0 to only use the link volumes of a single iteration. This values cannot be larger than the value specified for writeCountsInterval -->
		<param name="averageCountsOverIterations" value="5" />

		<!-- factor by which to re-scale the simulated values.  necessary when simulation runs with something different from 100%.  needs to be adapted manually -->
		<param name="countsScaleFactor" value="1.0" />

		<!-- distance to distanceFilterCenterNode to include counting stations. The unit of distance is the Euclidean distance implied by the coordinate system -->
		<param name="distanceFilter" value="null" />

		<!-- node id for center node of distance filter -->
		<param name="distanceFilterCenterNode" value="null" />

		<!-- If true, link counts from legs performed on modes not included in the 'analyzedModes' parameter are ignored. -->
		<param name="filterModes" value="false" />

		<!-- input file name to counts package -->
		<param name="inputCountsFile" value="null" />

		<!-- possible values: `html', `kml', `txt', `all' -->
		<param name="outputformat" value="txt" />

		<!-- Specifies how often the counts comparison should be calculated and written. -->
		<param name="writeCountsInterval" value="10" />
	</module>

<!-- ====================================================================== -->

	<module name="facilities" >
		<param name="inputFacilitiesFile" value="null" />
		<param name="inputFacilityAttributesFile" value="null" />
	</module>

<!-- ====================================================================== -->

	<module name="global" >
		<param name="coordinateSystem" value="EPSG:3115" />

		<!-- "global" number of threads.  This number is used, e.g., for replanning, but NOT in the mobsim.  This can typically be set to as many cores as you have available, or possibly even slightly more. -->
		<param name="numberOfThreads" value="2" />

		<param name="randomSeed" value="5399998864266990000" />
	</module>

<!-- ====================================================================== -->

	<module name="households" >
		<param name="inputFile" value="null" />
		<param name="inputHouseholdAttributesFile" value="null" />
	</module>

<!-- ====================================================================== -->

	<module name="linkStats" >

		<!-- Specifies over how many iterations the link volumes should be averaged that are used for the link statistics. Use 1 or 0 to only use the link volumes of a single iteration. This values cannot be larger than the value specified for writeLinkStatsInterval -->
		<param name="averageLinkStatsOverIterations" value="1" />

		<!-- Specifies how often the link stats should be calculated and written. Use 0 to disable the generation of link stats. -->
		<param name="writeLinkStatsInterval" value="10" />
	</module>

<!-- ====================================================================== -->

	<module name="network" >
		<param name="inputChangeEventsFile" value="null" />
		<param name="inputNetworkFile" value="./input/specialNetwork.xml" />
		<param name="laneDefinitionsFile" value="null" />
		<param name="timeVariantNetwork" value="false" />
	</module>

<!-- ====================================================================== -->

	<module name="parallelEventHandling" >

		<!-- Estimated number of events during mobsim run. An optional optimization hint for the framework. -->
		<param name="estimatedNumberOfEvents" value="null" />

		<!-- Number of threads for parallel events handler. 0 or null means the framework decides by itself. -->
		<param name="numberOfThreads" value="null" />

		<param name="synchronizeOnSimSteps" value="true" />
	</module>

<!-- ====================================================================== -->

	<module name="planCalcScore" >

		<!-- logit model scale parameter. default: 1.  Has name and default value for historical reasons (see Bryan Raney's phd thesis). -->
		<param name="BrainExpBeta" value="2.0" />

		<param name="PathSizeLogitBeta" value="1.0" />

		<!-- fraction of iterations at which MSA score averaging is started. The matsim theory department suggests to use this together with switching off choice set innovation (where a similar switch exists), but it has not been tested yet. -->
		<param name="fractionOfIterationsToStartScoreMSA" value="null" />

		<!-- new_score = (1-learningRate)*old_score + learningRate * score_from_mobsim.  learning rates close to zero emulate score averaging, but slow down initial convergence -->
		<param name="learningRate" value="1.0" />

		<!-- There used to be a plateau between duration=0 and duration=zeroUtilityDuration. This caused durations to evolve to zero once they were below zeroUtilityDuration, causing problems.  Only use this switch if you need to be backwards compatible with some old results.  (changed nov'13) -->
		<param name="usingOldScoringBelowZeroUtilityDuration" value="false" />

		<!-- write a plans file in each iteration directory which contains what each agent actually did, and the score it received. -->
		<param name="writeExperiencedPlans" value="false" />

		<parameterset type="scoringParameters" >
			<param name="earlyDeparture" value="0.0" />
			<param name="lateArrival" value="-18.0" />
			<param name="marginalUtilityOfMoney" value="1.0" />
			<param name="performing" value="6.0" />
			<param name="subpopulation" value="null" />
			<param name="utilityOfLineSwitch" value="-1.0" />
			<param name="waiting" value="0.0" />
			<param name="waitingPt" value="-6.0" />

			<parameterset type="activityParams" >
				<param name="activityType" value="h" />
				<param name="closingTime" value="undefined" />
				<param name="earliestEndTime" value="undefined" />
				<param name="latestStartTime" value="undefined" />
				<param name="minimalDuration" value="08:00:00" />
				<param name="openingTime" value="undefined" />
				<param name="priority" value="1.0" />
				<param name="scoringThisActivityAtAll" value="true" />
				<param name="typicalDuration" value="12:00:00" />

				<!-- method to compute score at typical duration.  Use uniform for backwards compatibility (all activities same score; higher proba to drop long acts). -->
				<param name="typicalDurationScoreComputation" value="uniform" />
			</parameterset>

			<parameterset type="activityParams" >
				<param name="activityType" value="w" />
				<param name="closingTime" value="18:00:00" />
				<param name="earliestEndTime" value="16:00:00" />
				<param name="latestStartTime" value="09:00:00" />
				<param name="minimalDuration" value="06:00:00" />
				<param name="openingTime" value="07:00:00" />
				<param name="priority" value="1.0" />
				<param name="scoringThisActivityAtAll" value="true" />
				<param name="typicalDuration" value="08:00:00" />

				<!-- method to compute score at typical duration.  Use uniform for backwards compatibility (all activities same score; higher proba to drop long acts). -->
				<param name="typicalDurationScoreComputation" value="uniform" />
			</parameterset>

			<parameterset type="activityParams" >
				<param name="activityType" value="pt interaction" />
				<param name="closingTime" value="00:00:00" />
				<param name="earliestEndTime" value="undefined" />
				<param name="latestStartTime" value="undefined" />
				<param name="minimalDuration" value="undefined" />
				<param name="openingTime" value="00:00:00" />
				<param name="priority" value="1.0" />
				<param name="scoringThisActivityAtAll" value="true" />
				<param name="typicalDuration" value="00:02:00" />

				<!-- method to compute score at typical duration.  Use uniform for backwards compatibility (all activities same score; higher proba to drop long acts). -->
				<param name="typicalDurationScoreComputation" value="uniform" />
			</parameterset>

			<parameterset type="modeParams" >

				<!-- [utils] alternative-specific constant.  no guarantee that this is used anywhere. default=0 to be backwards compatible for the time being -->
				<param name="constant" value="0.0" />

				<!-- [utils/m] utility of walking per m, normally negative.  this is on top of the time (dis)utility. -->
				<param name="marginalUtilityOfDistance_util_m" value="0.0" />

				<!-- [utils/hr] additional marginal utility of traveling.  normally negative.  this comes on top of the opportunity cost of time -->
				<param name="marginalUtilityOfTraveling_util_hr" value="-6.0" />

				<param name="mode" value="car" />
				<param name="monetaryDistanceRate" value="0.0" />
			</parameterset>

			<parameterset type="modeParams" >

				<!-- [utils] alternative-specific constant.  no guarantee that this is used anywhere. default=0 to be backwards compatible for the time being -->
				<param name="constant" value="0.0" />

				<!-- [utils/m] utility of walking per m, normally negative.  this is on top of the time (dis)utility. -->
				<param name="marginalUtilityOfDistance_util_m" value="0.0" />

				<!-- [utils/hr] additional marginal utility of traveling.  normally negative.  this comes on top of the opportunity cost of time -->
				<param name="marginalUtilityOfTraveling_util_hr" value="-6.0" />

				<param name="mode" value="pt" />
				<param name="monetaryDistanceRate" value="0.0" />
			</parameterset>

			<parameterset type="modeParams" >

				<!-- [utils] alternative-specific constant.  no guarantee that this is used anywhere. default=0 to be backwards compatible for the time being -->
				<param name="constant" value="0.0" />

				<!-- [utils/m] utility of walking per m, normally negative.  this is on top of the time (dis)utility. -->
				<param name="marginalUtilityOfDistance_util_m" value="0.0" />

				<!-- [utils/hr] additional marginal utility of traveling.  normally negative.  this comes on top of the opportunity cost of time -->
				<param name="marginalUtilityOfTraveling_util_hr" value="-6.0" />

				<param name="mode" value="walk" />
				<param name="monetaryDistanceRate" value="0.0" />
			</parameterset>

			<parameterset type="modeParams" >

				<!-- [utils] alternative-specific constant.  no guarantee that this is used anywhere. default=0 to be backwards compatible for the time being -->
				<param name="constant" value="0.0" />

				<!-- [utils/m] utility of walking per m, normally negative.  this is on top of the time (dis)utility. -->
				<param name="marginalUtilityOfDistance_util_m" value="0.0" />

				<!-- [utils/hr] additional marginal utility of traveling.  normally negative.  this comes on top of the opportunity cost of time -->
				<param name="marginalUtilityOfTraveling_util_hr" value="-6.0" />

				<param name="mode" value="bike" />
				<param name="monetaryDistanceRate" value="0.0" />
			</parameterset>

			<parameterset type="modeParams" >

				<!-- [utils] alternative-specific constant.  no guarantee that this is used anywhere. default=0 to be backwards compatible for the time being -->
				<param name="constant" value="0.0" />

				<!-- [utils/m] utility of walking per m, normally negative.  this is on top of the time (dis)utility. -->
				<param name="marginalUtilityOfDistance_util_m" value="0.0" />

				<!-- [utils/hr] additional marginal utility of traveling.  normally negative.  this comes on top of the opportunity cost of time -->
				<param name="marginalUtilityOfTraveling_util_hr" value="-6.0" />

				<param name="mode" value="other" />
				<param name="monetaryDistanceRate" value="0.0" />
			</parameterset>
		</parameterset>
	</module>

<!-- ====================================================================== -->

	<module name="plans" >

		<!-- String: minOfDurationAndEndTime tryEndTimeThenDuration endTimeOnly. Anything besides minOfDurationAndEndTime will internally use a different (simpler) version of the TimeAllocationMutator. -->
		<param name="activityDurationInterpretation" value="tryEndTimeThenDuration" />

		<!-- Path to a file containing person attributes (required file format: ObjectAttributes). -->
		<param name="inputPersonAttributesFile" value="null" />

		<param name="inputPlansFile" value="./input/plans_sitm_cali_01.04.2014_troncal.xml" />

		<!-- Defines how routes are stored in memory. Currently supported: LinkNetworkRoute, CompressedNetworkRoute. -->
		<param name="networkRouteType" value="LinkNetworkRoute" />

		<!-- (not tested) will remove plan attributes that are presumably not used, such as activityStartTime. default=false -->
		<param name="removingUnnecessaryPlanAttributes" value="false" />

		<!-- Name of the (Object)Attribute defining the subpopulation to which pertains a Person (as freight, through traffic, etc.). The attribute must be of String type. -->
		<param name="subpopulationAttributeName" value="subpopulation" />
	</module>

<!-- ====================================================================== -->

	<module name="planscalcroute" >

		<!-- All the modes for which the router is supposed to generate network routes (like car) -->
		<param name="networkModes" value="car" />

		<parameterset type="teleportedModeParameters" >
			<param name="beelineDistanceFactor" value="1.3" />
			<param name="mode" value="bike" />

			<!-- Free-speed factor for a teleported mode. Travel time = teleportedModeFreespeedFactor * <freespeed car travel time>. Insert a line like this for every such mode. Please do not set teleportedModeFreespeedFactor as well as teleportedModeSpeed for the same mode, but if you do, +teleportedModeFreespeedFactor wins over teleportedModeSpeed. -->
			<param name="teleportedModeFreespeedFactor" value="null" />

			<!-- Speed for a teleported mode. Travel time = (<beeline distance> * beelineDistanceFactor) / teleportedModeSpeed. Insert a line like this for every such mode. -->
			<param name="teleportedModeSpeed" value="4.166666666666667" />
		</parameterset>

		<parameterset type="teleportedModeParameters" >
			<param name="beelineDistanceFactor" value="1.3" />
			<param name="mode" value="walk" />

			<!-- Free-speed factor for a teleported mode. Travel time = teleportedModeFreespeedFactor * <freespeed car travel time>. Insert a line like this for every such mode. Please do not set teleportedModeFreespeedFactor as well as teleportedModeSpeed for the same mode, but if you do, +teleportedModeFreespeedFactor wins over teleportedModeSpeed. -->
			<param name="teleportedModeFreespeedFactor" value="null" />

			<!-- Speed for a teleported mode. Travel time = (<beeline distance> * beelineDistanceFactor) / teleportedModeSpeed. Insert a line like this for every such mode. -->
			<param name="teleportedModeSpeed" value="0.8333333333333333" />
		</parameterset>

		<parameterset type="teleportedModeParameters" >
			<param name="beelineDistanceFactor" value="1.3" />
			<param name="mode" value="undefined" />

			<!-- Free-speed factor for a teleported mode. Travel time = teleportedModeFreespeedFactor * <freespeed car travel time>. Insert a line like this for every such mode. Please do not set teleportedModeFreespeedFactor as well as teleportedModeSpeed for the same mode, but if you do, +teleportedModeFreespeedFactor wins over teleportedModeSpeed. -->
			<param name="teleportedModeFreespeedFactor" value="null" />

			<!-- Speed for a teleported mode. Travel time = (<beeline distance> * beelineDistanceFactor) / teleportedModeSpeed. Insert a line like this for every such mode. -->
			<param name="teleportedModeSpeed" value="13.88888888888889" />
		</parameterset>

		<parameterset type="teleportedModeParameters" >
			<param name="beelineDistanceFactor" value="1.3" />
			<param name="mode" value="ride" />

			<!-- Free-speed factor for a teleported mode. Travel time = teleportedModeFreespeedFactor * <freespeed car travel time>. Insert a line like this for every such mode. Please do not set teleportedModeFreespeedFactor as well as teleportedModeSpeed for the same mode, but if you do, +teleportedModeFreespeedFactor wins over teleportedModeSpeed. -->
			<param name="teleportedModeFreespeedFactor" value="1.0" />

			<!-- Speed for a teleported mode. Travel time = (<beeline distance> * beelineDistanceFactor) / teleportedModeSpeed. Insert a line like this for every such mode. -->
			<param name="teleportedModeSpeed" value="null" />
		</parameterset>

		<parameterset type="teleportedModeParameters" >
			<param name="beelineDistanceFactor" value="1.3" />
			<param name="mode" value="pt" />

			<!-- Free-speed factor for a teleported mode. Travel time = teleportedModeFreespeedFactor * <freespeed car travel time>. Insert a line like this for every such mode. Please do not set teleportedModeFreespeedFactor as well as teleportedModeSpeed for the same mode, but if you do, +teleportedModeFreespeedFactor wins over teleportedModeSpeed. -->
			<param name="teleportedModeFreespeedFactor" value="2.0" />

			<!-- Speed for a teleported mode. Travel time = (<beeline distance> * beelineDistanceFactor) / teleportedModeSpeed. Insert a line like this for every such mode. -->
			<param name="teleportedModeSpeed" value="null" />
		</parameterset>
	</module>

<!-- ====================================================================== -->

	<module name="ptCounts" >

		<!-- factor by which to re-scale the simulated values.  necessary when simulation runs with something different from 100%.  needs to be adapted manually -->
		<param name="countsScaleFactor" value="1.0" />

		<!-- distance to distanceFilterCenterNode to include counting stations. The unit of distance is the Euclidean distance implied by the coordinate system -->
		<param name="distanceFilter" value="null" />

		<!-- node id for center node of distance filter -->
		<param name="distanceFilterCenterNode" value="null" />

		<!-- input file containing the alighting (getting off) counts for pt -->
		<param name="inputAlightCountsFile" value="null" />

		<!-- input file containing the boarding (getting on) counts for pt -->
		<param name="inputBoardCountsFile" value="null" />

		<!-- input file containing the occupancy counts for pt -->
		<param name="inputOccupancyCountsFile" value="null" />

		<!-- possible values: `html', `kml', `txt', `all' -->
		<param name="outputformat" value="null" />

		<!-- every how many iterations (starting with 0) counts comparisons are generated -->
		<param name="ptCountsInterval" value="10" />
	</module>

<!-- ====================================================================== -->

	<module name="qsim" >
		<param name="endTime" value="24:00:00" />
		<param name="flowCapacityFactor" value="1.0" />

		<!-- decides if waiting vehicles enter the network after or before the already driving vehicles were moved. Default: false -->
		<param name="insertingWaitingVehiclesBeforeDrivingVehicles" value="false" />

		<!-- default: FIFO; options: FIFO PassingQ -->
		<param name="linkDynamics" value="FIFO" />

		<!-- The (initial) width of the links of the network. Use positive floating point values. -->
		<param name="linkWidth" value="30.0" />

		<!-- [comma-separated list] Defines which modes are congested modes. Technically, these are the modes that the departure handler of the netsimengine handles.  Effective cell size, effective lane width, flow capacity factor, and storage capacity factor need to be set with diligence.  Need to be vehicular modes to make sense. -->
		<param name="mainMode" value="car" />

		<!-- Shortens a link in the visualization, i.e. its start and end point are moved into towards the center. Does not affect traffic flow.  -->
		<param name="nodeOffset" value="0.0" />

		<!-- Number of threads used for the QSim.  Note that this setting is independent from the "global" threads setting.  In contrast to earlier versions, the non-parallel special version is no longer there. -->
		<param name="numberOfThreads" value="1" />

		<!-- Boolean. `true': stuck vehicles are removed, aborting the plan; `false': stuck vehicles are forced into the next link. `false' is probably the better choice. -->
		<param name="removeStuckVehicles" value="false" />

		<!-- Options: nullmaxOfStarttimeAndEarliestActivityEnd onlyUseStarttime  -->
		<param name="simStarttimeInterpretation" value="maxOfStarttimeAndEarliestActivityEnd" />

		<!-- snapshotStyle. One of: equiDist queue withHoles  -->
		<param name="snapshotStyle" value="equiDist" />

		<param name="snapshotperiod" value="00:00:00" />
		<param name="startTime" value="00:00:00" />
		<param name="storageCapacityFactor" value="1.0" />

		<!-- time in seconds.  Time after which the frontmost vehicle on a link is called `stuck' if it does not move. -->
		<param name="stuckTime" value="10.0" />

		<param name="timeStepSize" value="00:00:01" />

		<!-- options: nullqueue withHoles  -->
		<param name="trafficDynamics" value="queue" />

		<!-- [DEPRECATED, usevehiclesSource instead]  If this is true, we do not expect (or use) vehicles from the vehicles database, but create vehicles on the fly with default properties. -->
		<param name="useDefaultVehicles" value="true" />

		<!-- Set this parameter to true if lanes should be used, false if not. -->
		<param name="useLanes" value="false" />

		<!-- If a route does not reference a vehicle, agents will use the vehicle with the same id as their own. -->
		<param name="usePersonIdForMissingVehicleId" value="true" />

		<!-- normally, the qsim accumulates fractional flows up to one flow unit.  This is impractical with  with smaller PCEs.  If this switch is set to true, cars can enter a link if the accumulated flow is >=0, and the accumulated flow can go into negative.  Will probably become the default eventually. -->
		<param name="usingFastCapacityUpdate" value="false" />

		<!-- if the qsim should use as many runners as there are threads (Christoph's dissertation version) or more of them, together with a thread pool (seems to be faster in some situations, but is not tested). -->
		<param name="usingThreadpool" value="true" />

		<!-- Defines what happens if an agent wants to depart, but the specified vehicle is not available. One of: nullteleport wait exception  -->
		<param name="vehicleBehavior" value="teleport" />

		<!-- If vehicles should all be the same default vehicle, or come from the vehicles file, or something else.  Possible values:  defaultVehicle fromVehiclesData -->
		<param name="vehiclesSource" value="defaultVehicle" />
	</module>

<!-- ====================================================================== -->

	<module name="scenario" >
	</module>

<!-- ====================================================================== -->

	<module name="strategy" >

		<!-- the external executable will be called with a config file as argument.  This is the pathname to a possible skeleton config, to which additional information will be added.  Can be null. -->
		<param name="ExternalExeConfigTemplate" value="null" />

		<!-- time out value (in seconds) after which matsim will consider the external strategy as failed -->
		<param name="ExternalExeTimeOut" value="3600" />

		<!-- root directory for temporary files generated by the external executable. Provided as a service; I don't think this is used by MATSim. -->
		<param name="ExternalExeTmpFileRootDir" value="null" />

		<!-- fraction of iterations where innovative strategies are switched off.  Something link 0.8 should be good.  E.g. if you run from iteration 400 to iteration 500, innovation is switched off at iteration 480 -->
		<param name="fractionOfIterationsToDisableInnovation" value="Infinity" />

		<!-- maximum number of plans per agent.  ``0'' means ``infinity''.  Currently (2010), ``5'' is a good number -->
		<param name="maxAgentPlanMemorySize" value="4" />

		<!-- name of PlanSelector for plans removal.  Possible defaults: WorstPlanSelector SelectRandom SelectExpBetaForRemoval ChangeExpBetaForRemoval PathSizeLogitSelectorForRemoval . The current default, WorstPlanSelector is not a good choice from a discrete choice theoretical perspective. Alternatives, however, have not been systematically tested. kai, feb'12 -->
		<param name="planSelectorForRemoval" value="WorstPlanSelector" />

		<parameterset type="strategysettings" >

			<!-- iteration after which strategy will be disabled.  most useful for ``innovative'' strategies (new routes, new times, ...). Normally, better use fractionOfIterationsToDisableInnovation -->
			<param name="disableAfterIteration" value="-1" />

			<!-- path to external executable (if applicable) -->
			<param name="executionPath" value="null" />

			<!-- name of strategy.  Possible default names: KeepLastSelected BestScore ChangeExpBeta SelectExpBeta SelectRandom SelectPathSizeLogit  (selectors), ReRoute TimeAllocationMutator ChangeLegMode TimeAllocationMutator_ReRoute ChangeSingleLegMode ChangeSingleTripMode SubtourModeChoice ChangeTripMode TripSubtourModeChoice  (innovative strategies). -->
			<param name="strategyName" value="BestScore" />

			<!-- subpopulation to which the strategy applies. "null" refers to the default population, that is, the set of persons for which no explicit subpopulation is defined (ie no subpopulation attribute) -->
			<param name="subpopulation" value="null" />

			<!-- weight of a strategy: for each agent, a strategy will be selected with a probability proportional to its weight -->
			<param name="weight" value="0.7" />
		</parameterset>

		<parameterset type="strategysettings" >

			<!-- iteration after which strategy will be disabled.  most useful for ``innovative'' strategies (new routes, new times, ...). Normally, better use fractionOfIterationsToDisableInnovation -->
			<param name="disableAfterIteration" value="-1" />

			<!-- path to external executable (if applicable) -->
			<param name="executionPath" value="null" />

			<!-- name of strategy.  Possible default names: KeepLastSelected BestScore ChangeExpBeta SelectExpBeta SelectRandom SelectPathSizeLogit  (selectors), ReRoute TimeAllocationMutator ChangeLegMode TimeAllocationMutator_ReRoute ChangeSingleLegMode ChangeSingleTripMode SubtourModeChoice ChangeTripMode TripSubtourModeChoice  (innovative strategies). -->
			<param name="strategyName" value="ReRoute" />

			<!-- subpopulation to which the strategy applies. "null" refers to the default population, that is, the set of persons for which no explicit subpopulation is defined (ie no subpopulation attribute) -->
			<param name="subpopulation" value="null" />

			<!-- weight of a strategy: for each agent, a strategy will be selected with a probability proportional to its weight -->
			<param name="weight" value="0.1" />
		</parameterset>

		<parameterset type="strategysettings" >

			<!-- iteration after which strategy will be disabled.  most useful for ``innovative'' strategies (new routes, new times, ...). Normally, better use fractionOfIterationsToDisableInnovation -->
			<param name="disableAfterIteration" value="-1" />

			<!-- path to external executable (if applicable) -->
			<param name="executionPath" value="null" />

			<!-- name of strategy.  Possible default names: KeepLastSelected BestScore ChangeExpBeta SelectExpBeta SelectRandom SelectPathSizeLogit  (selectors), ReRoute TimeAllocationMutator ChangeLegMode TimeAllocationMutator_ReRoute ChangeSingleLegMode ChangeSingleTripMode SubtourModeChoice ChangeTripMode TripSubtourModeChoice  (innovative strategies). -->
			<param name="strategyName" value="TimeAllocationMutator" />

			<!-- subpopulation to which the strategy applies. "null" refers to the default population, that is, the set of persons for which no explicit subpopulation is defined (ie no subpopulation attribute) -->
			<param name="subpopulation" value="null" />

			<!-- weight of a strategy: for each agent, a strategy will be selected with a probability proportional to its weight -->
			<param name="weight" value="0.2" />
		</parameterset>
	</module>

<!-- ====================================================================== -->

	<module name="subtourModeChoice" >

		<!-- Defines the chain-based modes, seperated by commas -->
		<param name="chainBasedModes" value="car,bike" />

		<!-- Defines whether car availability must be considered or not. A agent has no car only if it has no license, or never access to a car -->
		<param name="considerCarAvailability" value="false" />

		<!-- Defines all the modes available, including chain-based modes, seperated by commas -->
		<param name="modes" value="car,pt,bike,walk" />
	</module>

<!-- ====================================================================== -->

	<module name="transit" >

		<!-- Optional input file containing additional attributes for transit lines, stored as ObjectAttributes. -->
		<param name="transitLinesAttributesFile" value="null" />

		<!-- Comma-separated list of transportation modes that are handled as transit. Defaults to 'pt'. -->
		<param name="transitModes" value="pt" />

		<!-- Input file containing the transit schedule to be simulated. -->
		<param name="transitScheduleFile" value="./input/transitSchedule.xml" />

		<!-- Optional input file containing additional attributes for transit stop facilities, stored as ObjectAttributes. -->
		<param name="transitStopsAttributesFile" value="null" />

		<!-- Set this parameter to true if transit should be simulated, false if not. -->
		<param name="useTransit" value="true" />

		<!-- Input file containing the vehicles used by the departures in the transit schedule. -->
		<param name="vehiclesFile" value="./input/transitVehicles.xml" />
	</module>

<!-- ====================================================================== -->

	<module name="transitRouter" >

		<!-- additional time the router allocates when a line switch happens. Can be interpreted as a 'safety' time that agents need to safely transfer from one line to another -->
		<param name="additionalTransferTime" value="0.0" />

		<!-- step size to increase searchRadius if no stops are found -->
		<param name="extensionRadius" value="200.0" />

		<!-- maximum beeline distance between stops that agents could transfer to by walking -->
		<param name="maxBeelineWalkConnectionDistance" value="100.0" />

		<!-- the radius in which stop locations are searched, given a start or target coordinate -->
		<param name="searchRadius" value="1000.0" />
	</module>

<!-- ====================================================================== -->

	<module name="travelTimeCalculator" >

		<!-- Transport modes that will be respected by the travel time collector. 'car' is default, which includes also bussed from the pt simulation module. Use this parameter in combination with 'filterModes' = true! -->
		<param name="analyzedModes" value="car" />

		<param name="calculateLinkToLinkTravelTimes" value="false" />
		<param name="calculateLinkTravelTimes" value="true" />

		<!-- If true, link travel times from legs performed on modes not included in the 'analyzedModes' parameter are ignored. -->
		<param name="filterModes" value="false" />

		<!-- How to deal with congested time bins that have no link entry events. `optimistic' assumes free speed (too optimistic); 'experimental_LastMile' is experimental and probably too pessimistic. -->
		<param name="travelTimeAggregator" value="optimistic" />

		<!-- The size of the time bin (in sec) into which the link travel times are aggregated for the router -->
		<param name="travelTimeBinSize" value="900" />

		<!-- possible values: nullTravelTimeCalculatorArray TravelTimeCalculatorHashMap  -->
		<param name="travelTimeCalculator" value="TravelTimeCalculatorArray" />

		<!-- How to deal with link entry times at different positions during the time bin. Currently supported: average, linearinterpolation -->
		<param name="travelTimeGetter" value="average" />
	</module>

<!-- ====================================================================== -->

	<module name="vehicles" >
		<param name="vehiclesFile" value="null" />
	</module>

<!-- ====================================================================== -->

	<module name="vspExperimental" >

		<!-- (do not use) Set this filename of MZ05 daily analysis -->
		<param name="inputMZ05File" value="" />

		<!-- (do not use except of you have to) There was a problem with pt interaction scoring.  Some people solved it by overwriting the parameters of the pt interaction activity type.  Doing this now throws an Exception.  If you still insist on doing this, set the following to true. -->
		<param name="isAbleToOverwritePtInteractionParams" value="false" />

		<param name="isGeneratingBoardingDeniedEvent" value="false" />

		<!-- if an approximation of the opportunity cost of time is included into the radius calculation for location choice.`true' will be faster, but it is an approximation.  Default is `true'; `false' is available for backwards compatibility. -->
		<param name="isUsingOpportunityCostOfTimeForLocationChoice" value="true" />

		<param name="logitScaleParamForPlansRemoval" value="1.0" />

		<!-- Options: [Lorg.matsim.core.config.groups.VspExperimentalConfigGroup$VspDefaultsCheckingLevel;@78691363.  When violating VSP defaults, this results in nothing, logfile infos, logfile warnings, or aborts.  Members of VSP should use `abort' or talk to kai. -->
		<param name="vspDefaultsCheckingLevel" value="ignore" />

		<!-- if true then writes output_events in output directory.  default is `false'. Will only work when lastIteration is multiple of events writing interval -->
		<param name="writingOutputEvents" value="false" />
	</module>

<!-- ====================================================================== -->

</config>

2015-10-05 14:59:57,512  INFO ControlerUtils:62 Complete config dump done.
2015-10-05 14:59:57,512  INFO ControlerUtils:63 Checking consistency of config...
2015-10-05 14:59:57,512  INFO VspConfigConsistencyCheckerImpl:54 NOT running vsp config consistency check because vsp defaults checking level is set to IGNORE
2015-10-05 14:59:57,512  INFO ControlerUtils:65 Checking consistency of config done.
2015-10-05 14:59:57,550  INFO TransitRouterNetwork:366 start creating transit network
2015-10-05 14:59:57,551  INFO Counter:51  node #1
2015-10-05 14:59:57,551  INFO Counter:51  node #2
2015-10-05 14:59:57,553  INFO Counter:51  link #1
2015-10-05 14:59:57,553  INFO Counter:51  link #2
2015-10-05 14:59:57,553  INFO Counter:51  node #4
2015-10-05 14:59:57,553  INFO Counter:51  link #4
2015-10-05 14:59:57,553  INFO Counter:51  node #8
2015-10-05 14:59:57,553  INFO Counter:51  link #8
2015-10-05 14:59:57,554  INFO Counter:51  node #16
2015-10-05 14:59:57,554  INFO Counter:51  link #16
2015-10-05 14:59:57,554  INFO Counter:51  node #32
2015-10-05 14:59:57,554  INFO Counter:51  link #32
2015-10-05 14:59:57,554  INFO Counter:51  node #64
2015-10-05 14:59:57,555  INFO Counter:51  link #64
2015-10-05 14:59:57,578  INFO TransitRouterNetwork:392 add transfer links
2015-10-05 14:59:57,580  INFO TransitRouterNetwork:408 354 transfer links to be added.
2015-10-05 14:59:57,580  INFO Counter:51  link #128
2015-10-05 14:59:57,580  INFO Counter:51  link #256
2015-10-05 14:59:57,581  INFO TransitRouterNetwork:414 transit router network statistics:
2015-10-05 14:59:57,581  INFO TransitRouterNetwork:415  # nodes: 121
2015-10-05 14:59:57,581  INFO TransitRouterNetwork:416  # links total:     469
2015-10-05 14:59:57,581  INFO TransitRouterNetwork:417  # transfer links:  354
2015-10-05 14:59:57,600  INFO NetworkImpl:368 building QuadTree for nodes: xrange(1054300.199471335,1068258.738856779); yrange(855642.8375964143,878677.9055935786)
2015-10-05 14:59:57,603  INFO NetworkImpl:377 Building QuadTree took 0.004 seconds.
2015-10-05 14:59:57,631  INFO Counter:51 [PersonPrepareForSim] handled person # 1
2015-10-05 14:59:57,633  INFO Counter:51 [PersonPrepareForSim] handled person # 2
2015-10-05 14:59:57,634  INFO Counter:51 [PersonPrepareForSim] handled person # 4
2015-10-05 14:59:57,636  INFO Counter:51 [PersonPrepareForSim] handled person # 8
2015-10-05 14:59:57,641  INFO Counter:51 [PersonPrepareForSim] handled person # 16
2015-10-05 14:59:57,647  INFO Counter:51 [PersonPrepareForSim] handled person # 32
2015-10-05 14:59:57,657  INFO Counter:51 [PersonPrepareForSim] handled person # 64
2015-10-05 14:59:57,679  INFO Counter:51 [PersonPrepareForSim] handled person # 128
2015-10-05 14:59:57,706  INFO Counter:51 [PersonPrepareForSim] handled person # 256
2015-10-05 14:59:57,739  INFO Counter:51 [PersonPrepareForSim] handled person # 512
2015-10-05 14:59:57,809  INFO Counter:51 [PersonPrepareForSim] handled person # 1024
2015-10-05 14:59:57,930  INFO Counter:51 [PersonPrepareForSim] handled person # 2048
2015-10-05 14:59:58,154  INFO Counter:51 [PersonPrepareForSim] handled person # 4096
2015-10-05 14:59:58,411  INFO Counter:51 [PersonPrepareForSim] handled person # 8192
2015-10-05 14:59:59,164  INFO Counter:51 [PersonPrepareForSim] handled person # 16384
2015-10-05 14:59:59,890  INFO Counter:51 [PersonPrepareForSim] handled person # 32768
2015-10-05 15:00:01,033  INFO Counter:57 [PersonPrepareForSim] handled person # 59487
2015-10-05 15:00:01,034  INFO AbstractController:240 ###################################################
2015-10-05 15:00:01,034  INFO AbstractController:241 ### ITERATION 0 BEGINS
2015-10-05 15:00:01,037  INFO ControlerListenerManager:141 calling notifyIterationStarts on org.matsim.core.controler.corelisteners.PlansScoringImpl
2015-10-05 15:00:01,233  INFO EventsManagerImpl:144 adding Event-Handler: org.matsim.core.scoring.EventsToScore
2015-10-05 15:00:01,234  INFO EventsManagerImpl:148   org.matsim.core.events.handler.BasicEventHandler
2015-10-05 15:00:01,234  INFO EventsManagerImpl:207     > org.matsim.api.core.v01.events.Event
2015-10-05 15:00:01,234  INFO EventsManagerImpl:156 
2015-10-05 15:00:01,234  INFO EventsManagerImpl:144 adding Event-Handler: org.matsim.core.scoring.EventsToScore
2015-10-05 15:00:01,234  INFO EventsManagerImpl:148   org.matsim.core.events.handler.BasicEventHandler
2015-10-05 15:00:01,234  INFO EventsManagerImpl:207     > org.matsim.api.core.v01.events.Event
2015-10-05 15:00:01,234  INFO EventsManagerImpl:156 
2015-10-05 15:00:01,234  INFO ControlerListenerManager:146 calling notifyIterationStarts on org.matsim.analysis.LegHistogramListener
2015-10-05 15:00:01,234  INFO ControlerListenerManager:146 calling notifyIterationStarts on org.matsim.analysis.LinkStatsControlerListener
2015-10-05 15:00:01,234  INFO ControlerListenerManager:149 [it.0] all ControlerIterationStartsListeners called.
2015-10-05 15:00:01,235  INFO ControlerListenerManager:225 calling notifyBeforeMobsim on org.matsim.core.controler.corelisteners.EventsHandlingImpl
2015-10-05 15:00:01,235  INFO EventsManagerImpl:170 resetting Event-Handlers
2015-10-05 15:00:01,235  INFO EventsManagerImpl:177   org.matsim.core.trafficmonitoring.TravelTimeCalculator
2015-10-05 15:00:01,235  INFO EventsManagerImpl:177   org.matsim.analysis.VolumesAnalyzer
2015-10-05 15:00:01,235  INFO EventsManagerImpl:177   org.matsim.analysis.CalcLegTimes
2015-10-05 15:00:01,235  INFO EventsManagerImpl:177   org.matsim.analysis.LegHistogram
2015-10-05 15:00:01,235  INFO EventsManagerImpl:177   org.matsim.core.scoring.EventsToScore
2015-10-05 15:00:01,322  INFO EventsManagerImpl:144 adding Event-Handler: org.matsim.core.events.algorithms.EventWriterXML
2015-10-05 15:00:01,323  INFO EventsManagerImpl:148   org.matsim.core.events.algorithms.EventWriter
2015-10-05 15:00:01,323  INFO EventsManagerImpl:148   org.matsim.core.events.handler.BasicEventHandler
2015-10-05 15:00:01,323  INFO EventsManagerImpl:207     > org.matsim.api.core.v01.events.Event
2015-10-05 15:00:01,323  INFO EventsManagerImpl:156 
2015-10-05 15:00:01,323  INFO EventsManagerImpl:144 adding Event-Handler: org.matsim.core.events.algorithms.EventWriterXML
2015-10-05 15:00:01,323  INFO EventsManagerImpl:148   org.matsim.core.events.algorithms.EventWriter
2015-10-05 15:00:01,323  INFO EventsManagerImpl:148   org.matsim.core.events.handler.BasicEventHandler
2015-10-05 15:00:01,323  INFO EventsManagerImpl:207     > org.matsim.api.core.v01.events.Event
2015-10-05 15:00:01,323  INFO EventsManagerImpl:156 
2015-10-05 15:00:01,325  INFO ControlerListenerManager:225 calling notifyBeforeMobsim on org.matsim.core.controler.corelisteners.PlansDumpingImpl
2015-10-05 15:00:01,325  INFO PlansDumpingImpl:79 dumping plans...
2015-10-05 15:00:01,349  INFO Counter:51 [PopulationWriter] dumped person # 1
2015-10-05 15:00:01,349  INFO Counter:51 [PopulationWriter] dumped person # 2
2015-10-05 15:00:01,350  INFO Counter:51 [PopulationWriter] dumped person # 4
2015-10-05 15:00:01,350  INFO Counter:51 [PopulationWriter] dumped person # 8
2015-10-05 15:00:01,352  INFO Counter:51 [PopulationWriter] dumped person # 16
2015-10-05 15:00:01,356  INFO Counter:51 [PopulationWriter] dumped person # 32
2015-10-05 15:00:01,359  INFO Counter:51 [PopulationWriter] dumped person # 64
2015-10-05 15:00:01,364  INFO Counter:51 [PopulationWriter] dumped person # 128
2015-10-05 15:00:01,375  INFO Counter:51 [PopulationWriter] dumped person # 256
2015-10-05 15:00:01,395  INFO Counter:51 [PopulationWriter] dumped person # 512
2015-10-05 15:00:01,432  INFO Counter:51 [PopulationWriter] dumped person # 1024
2015-10-05 15:00:01,534  INFO Counter:51 [PopulationWriter] dumped person # 2048
2015-10-05 15:00:01,694  INFO Counter:51 [PopulationWriter] dumped person # 4096
2015-10-05 15:00:01,986  INFO Counter:51 [PopulationWriter] dumped person # 8192
2015-10-05 15:00:02,452  INFO Counter:51 [PopulationWriter] dumped person # 16384
2015-10-05 15:00:03,332  INFO Counter:51 [PopulationWriter] dumped person # 32768
[...]
2015-10-05 15:00:25,126  INFO EventsManagerImpl:156 
2015-10-05 15:00:25,126  INFO EventsManagerImpl:144 adding Event-Handler: org.matsim.core.events.algorithms.EventWriterXML
2015-10-05 15:00:25,126  INFO EventsManagerImpl:148   org.matsim.core.events.algorithms.EventWriter
2015-10-05 15:00:25,126  INFO EventsManagerImpl:148   org.matsim.core.events.handler.BasicEventHandler
2015-10-05 15:00:25,126  INFO EventsManagerImpl:207     > org.matsim.api.core.v01.events.Event
2015-10-05 15:00:25,126  INFO EventsManagerImpl:156 
2015-10-05 15:00:25,126  INFO ControlerListenerManager:225 calling notifyBeforeMobsim on org.matsim.core.controler.corelisteners.PlansDumpingImpl
2015-10-05 15:00:25,126  INFO PlansDumpingImpl:79 dumping plans...
2015-10-05 15:00:25,149  INFO Counter:51 [PopulationWriter] dumped person # 1
2015-10-05 15:00:25,149  INFO Counter:51 [PopulationWriter] dumped person # 2
2015-10-05 15:00:25,150  INFO Counter:51 [PopulationWriter] dumped person # 4
2015-10-05 15:00:25,150  INFO Counter:51 [PopulationWriter] dumped person # 8
2015-10-05 15:00:25,151  INFO Counter:51 [PopulationWriter] dumped person # 16
2015-10-05 15:00:25,152  INFO Counter:51 [PopulationWriter] dumped person # 32
2015-10-05 15:00:25,154  INFO Counter:51 [PopulationWriter] dumped person # 64
2015-10-05 15:00:25,159  INFO Counter:51 [PopulationWriter] dumped person # 128
2015-10-05 15:00:25,168  INFO Counter:51 [PopulationWriter] dumped person # 256
2015-10-05 15:00:25,185  INFO Counter:51 [PopulationWriter] dumped person # 512
2015-10-05 15:00:25,224  INFO Counter:51 [PopulationWriter] dumped person # 1024
2015-10-05 15:00:25,328  INFO Counter:51 [PopulationWriter] dumped person # 2048
2015-10-05 15:00:25,467  INFO Counter:51 [PopulationWriter] dumped person # 4096
2015-10-05 15:00:25,780  INFO Counter:51 [PopulationWriter] dumped person # 8192
2015-10-05 15:00:26,346  INFO Counter:51 [PopulationWriter] dumped person # 16384
2015-10-05 15:00:27,490  INFO Counter:51 [PopulationWriter] dumped person # 32768
2015-10-05 15:00:29,027  INFO PopulationWriter:95 Population written to: ./output/ITERS/it.1/1.plans.xml.gz
2015-10-05 15:00:29,028  INFO Counter:57 [PopulationWriter] dumped person # 59487
2015-10-05 15:00:29,028  INFO PlansDumpingImpl:81 finished plans dump.
2015-10-05 15:00:29,028  INFO ControlerListenerManager:230 calling notifyBeforeMobsim on org.matsim.population.VspPlansCleaner
2015-10-05 15:00:29,112  INFO ControlerListenerManager:233 [it.1] all ControlerBeforeMobsimListeners called.
2015-10-05 15:00:29,127  INFO MobsimListenerManager:49 calling addQueueSimulationListener
2015-10-05 15:00:29,127  INFO MobsimListenerManager:53   assigned class org.matsim.core.mobsim.framework.listeners.MobsimListener to interface org.matsim.core.mobsim.framework.listeners.MobsimBeforeSimStepListener
2015-10-05 15:00:29,127  INFO MobsimListenerManager:53   assigned class org.matsim.core.mobsim.framework.listeners.MobsimListener to interface org.matsim.core.mobsim.framework.listeners.MobsimListener
2015-10-05 15:00:29,127  INFO MobsimListenerManager:53   assigned class org.matsim.core.mobsim.framework.listeners.MobsimListener to interface org.matsim.core.mobsim.qsim.messagequeueengine.MessageQueueEngine
2015-10-05 15:00:29,128  INFO ReconstructingUmlaufBuilder:112 Generating UmlaufStuecke
2015-10-05 15:00:29,361  INFO QNetsimEngine:539 Assigned 2020 nodes and 2667 links to QSimEngineRunner #0
2015-10-05 15:00:29,399  INFO QNetsimEngine:367 SIMULATION (QNetsimEngine) AT 01:21:56 : #links=0 #nodes=0
2015-10-05 15:00:29,399  INFO QSim:445 SIMULATION (NEW QSim) AT 01:21:56 : #Veh=59564 lost=0 simT=0.0s realT=0s; (s/r): 0.0
2015-10-05 15:00:29,399  INFO Gbl:52 used RAM: 571655376B = 558257kB = 545MB  free: 371014448B = 353MB  total: 942669824B = 899MB
2015-10-05 15:00:29,464  INFO QNetsimEngine:367 SIMULATION (QNetsimEngine) AT 02:00:00 : #links=0 #nodes=0
2015-10-05 15:00:29,464  INFO QSim:445 SIMULATION (NEW QSim) AT 02:00:00 : #Veh=59564 lost=0 simT=2284.0s realT=0s; (s/r): Infinity
2015-10-05 15:00:29,464  INFO Gbl:52 used RAM: 575101896B = 561622kB = 548MB  free: 367567928B = 350MB  total: 942669824B = 899MB
2015-10-05 15:00:29,573  INFO QNetsimEngine:367 SIMULATION (QNetsimEngine) AT 03:00:00 : #links=0 #nodes=0
2015-10-05 15:00:29,574  INFO QSim:445 SIMULATION (NEW QSim) AT 03:00:00 : #Veh=59564 lost=0 simT=5884.0s realT=0s; (s/r): Infinity
2015-10-05 15:00:29,574  INFO Gbl:52 used RAM: 575101896B = 561622kB = 548MB  free: 367567928B = 350MB  total: 942669824B = 899MB
2015-10-05 15:00:29,668  INFO QNetsimEngine:367 SIMULATION (QNetsimEngine) AT 04:00:00 : #links=0 #nodes=0
2015-10-05 15:00:29,668  INFO QSim:445 SIMULATION (NEW QSim) AT 04:00:00 : #Veh=59564 lost=0 simT=9484.0s realT=0s; (s/r): Infinity
2015-10-05 15:00:29,668  INFO Gbl:52 used RAM: 578548416B = 564988kB = 551MB  free: 364121408B = 347MB  total: 942669824B = 899MB
2015-10-05 15:00:29,777  INFO QNetsimEngine:367 SIMULATION (QNetsimEngine) AT 05:00:00 : #links=3 #nodes=0
2015-10-05 15:00:29,777  INFO QSim:445 SIMULATION (NEW QSim) AT 05:00:00 : #Veh=59560 lost=0 simT=13084.0s realT=0s; (s/r): Infinity
2015-10-05 15:00:29,778  INFO Gbl:52 used RAM: 580009480B = 566415kB = 553MB  free: 362660344B = 345MB  total: 942669824B = 899MB
2015-10-05 15:00:30,239  INFO QNetsimEngine:367 SIMULATION (QNetsimEngine) AT 06:00:00 : #links=20 #nodes=1
2015-10-05 15:00:30,239  INFO QSim:445 SIMULATION (NEW QSim) AT 06:00:00 : #Veh=59541 lost=0 simT=16684.0s realT=1s; (s/r): 16684.0
2015-10-05 15:00:30,239  INFO Gbl:52 used RAM: 615599096B = 601170kB = 587MB  free: 327070728B = 311MB  total: 942669824B = 899MB
2015-10-05 15:00:31,209  INFO QNetsimEngine:367 SIMULATION (QNetsimEngine) AT 07:00:00 : #links=35 #nodes=1
2015-10-05 15:00:31,210  INFO QSim:445 SIMULATION (NEW QSim) AT 07:00:00 : #Veh=59457 lost=0 simT=20284.0s realT=2s; (s/r): 10142.0
2015-10-05 15:00:31,210  INFO Gbl:52 used RAM: 335096248B = 327242kB = 319MB  free: 579262024B = 552MB  total: 914358272B = 872MB
2015-10-05 15:00:32,218  INFO QNetsimEngine:367 SIMULATION (QNetsimEngine) AT 08:00:00 : #links=35 #nodes=3
2015-10-05 15:00:32,219  INFO QSim:445 SIMULATION (NEW QSim) AT 08:00:00 : #Veh=59287 lost=0 simT=23884.0s realT=3s; (s/r): 7961.333333333333
2015-10-05 15:00:32,219  INFO Gbl:52 used RAM: 458800720B = 448047kB = 437MB  free: 455557552B = 434MB  total: 914358272B = 872MB
2015-10-05 15:00:33,010  INFO QNetsimEngine:367 SIMULATION (QNetsimEngine) AT 09:00:00 : #links=25 #nodes=1
2015-10-05 15:00:33,011  INFO QSim:445 SIMULATION (NEW QSim) AT 09:00:00 : #Veh=58840 lost=0 simT=27484.0s realT=3s; (s/r): 9161.333333333334
2015-10-05 15:00:33,011  INFO Gbl:52 used RAM: 556793008B = 543743kB = 530MB  free: 357565264B = 341MB  total: 914358272B = 872MB
2015-10-05 15:00:33,764  INFO QNetsimEngine:367 SIMULATION (QNetsimEngine) AT 10:00:00 : #links=26 #nodes=5
2015-10-05 15:00:33,764  INFO QSim:445 SIMULATION (NEW QSim) AT 10:00:00 : #Veh=57910 lost=0 simT=31084.0s realT=4s; (s/r): 7771.0
2015-10-05 15:00:33,764  INFO Gbl:52 used RAM: 641205440B = 626177kB = 611MB  free: 273152832B = 260MB  total: 914358272B = 872MB
2015-10-05 15:00:34,452  INFO QNetsimEngine:367 SIMULATION (QNetsimEngine) AT 11:00:00 : #links=22 #nodes=2
2015-10-05 15:00:34,452  INFO QSim:445 SIMULATION (NEW QSim) AT 11:00:00 : #Veh=56325 lost=0 simT=34684.0s realT=5s; (s/r): 6936.8
2015-10-05 15:00:34,452  INFO Gbl:52 used RAM: 724051784B = 707081kB = 690MB  free: 190306488B = 181MB  total: 914358272B = 872MB
2015-10-05 15:00:35,252  INFO QNetsimEngine:367 SIMULATION (QNetsimEngine) AT 12:00:00 : #links=19 #nodes=1
2015-10-05 15:00:35,253  INFO QSim:445 SIMULATION (NEW QSim) AT 12:00:00 : #Veh=53990 lost=0 simT=38284.0s realT=6s; (s/r): 6380.666666666667
2015-10-05 15:00:35,253  INFO Gbl:52 used RAM: 425991176B = 416007kB = 406MB  free: 494134264B = 471MB  total: 920125440B = 877MB
2015-10-05 15:00:36,027  INFO QNetsimEngine:367 SIMULATION (QNetsimEngine) AT 13:00:00 : #links=26 #nodes=1
2015-10-05 15:00:36,027  INFO QSim:445 SIMULATION (NEW QSim) AT 13:00:00 : #Veh=50864 lost=0 simT=41884.0s realT=6s; (s/r): 6980.666666666667
2015-10-05 15:00:36,028  INFO Gbl:52 used RAM: 521067048B = 508854kB = 496MB  free: 399058392B = 380MB  total: 920125440B = 877MB
2015-10-05 15:00:36,749  INFO QNetsimEngine:367 SIMULATION (QNetsimEngine) AT 14:00:00 : #links=23 #nodes=2
2015-10-05 15:00:36,749  INFO QSim:445 SIMULATION (NEW QSim) AT 14:00:00 : #Veh=48390 lost=0 simT=45484.0s realT=7s; (s/r): 6497.714285714285
2015-10-05 15:00:36,749  INFO Gbl:52 used RAM: 603919848B = 589765kB = 575MB  free: 316205592B = 301MB  total: 920125440B = 877MB
2015-10-05 15:00:37,497  INFO QNetsimEngine:367 SIMULATION (QNetsimEngine) AT 15:00:00 : #links=22 #nodes=1
2015-10-05 15:00:37,497  INFO QSim:445 SIMULATION (NEW QSim) AT 15:00:00 : #Veh=45670 lost=0 simT=49084.0s realT=8s; (s/r): 6135.5
2015-10-05 15:00:37,497  INFO Gbl:52 used RAM: 696022080B = 679709kB = 663MB  free: 224103360B = 213MB  total: 920125440B = 877MB
2015-10-05 15:00:38,311  INFO QNetsimEngine:367 SIMULATION (QNetsimEngine) AT 16:00:00 : #links=20 #nodes=0
2015-10-05 15:00:38,311  INFO QSim:445 SIMULATION (NEW QSim) AT 16:00:00 : #Veh=42298 lost=0 simT=52684.0s realT=9s; (s/r): 5853.777777777777
2015-10-05 15:00:38,312  INFO Gbl:52 used RAM: 393614656B = 384389kB = 375MB  free: 451013312B = 430MB  total: 844627968B = 805MB
2015-10-05 15:00:39,119  INFO QNetsimEngine:367 SIMULATION (QNetsimEngine) AT 17:00:00 : #links=30 #nodes=2
2015-10-05 15:00:39,119  INFO QSim:445 SIMULATION (NEW QSim) AT 17:00:00 : #Veh=37284 lost=0 simT=56284.0s realT=9s; (s/r): 6253.777777777777
2015-10-05 15:00:39,120  INFO Gbl:52 used RAM: 493378128B = 481814kB = 470MB  free: 351249840B = 334MB  total: 844627968B = 805MB
2015-10-05 15:00:40,280  INFO QNetsimEngine:367 SIMULATION (QNetsimEngine) AT 18:00:00 : #links=30 #nodes=4
2015-10-05 15:00:40,280  INFO QSim:445 SIMULATION (NEW QSim) AT 18:00:00 : #Veh=28994 lost=0 simT=59884.0s realT=11s; (s/r): 5444.0
2015-10-05 15:00:40,280  INFO Gbl:52 used RAM: 631063600B = 616273kB = 601MB  free: 213564368B = 203MB  total: 844627968B = 805MB
2015-10-05 15:00:41,467  INFO QNetsimEngine:367 SIMULATION (QNetsimEngine) AT 19:00:00 : #links=32 #nodes=2
2015-10-05 15:00:41,467  INFO QSim:445 SIMULATION (NEW QSim) AT 19:00:00 : #Veh=19579 lost=0 simT=63484.0s realT=12s; (s/r): 5290.333333333333
2015-10-05 15:00:41,467  INFO Gbl:52 used RAM: 466146208B = 455220kB = 444MB  free: 336014432B = 320MB  total: 802160640B = 765MB
2015-10-05 15:00:42,010  INFO EventsManagerImpl:134  event # 4194304
2015-10-05 15:00:42,102  INFO QNetsimEngine:367 SIMULATION (QNetsimEngine) AT 20:00:00 : #links=23 #nodes=1
2015-10-05 15:00:42,102  INFO QSim:445 SIMULATION (NEW QSim) AT 20:00:00 : #Veh=13137 lost=0 simT=67084.0s realT=12s; (s/r): 5590.333333333333
2015-10-05 15:00:42,102  INFO Gbl:52 used RAM: 546297448B = 533493kB = 520MB  free: 255863192B = 244MB  total: 802160640B = 765MB
2015-10-05 15:00:42,601  INFO QNetsimEngine:367 SIMULATION (QNetsimEngine) AT 21:00:00 : #links=22 #nodes=1
2015-10-05 15:00:42,601  INFO QSim:445 SIMULATION (NEW QSim) AT 21:00:00 : #Veh=8351 lost=0 simT=70684.0s realT=13s; (s/r): 5437.2307692307695
2015-10-05 15:00:42,601  INFO Gbl:52 used RAM: 600976528B = 586891kB = 573MB  free: 201184112B = 191MB  total: 802160640B = 765MB
2015-10-05 15:00:43,106  INFO QNetsimEngine:367 SIMULATION (QNetsimEngine) AT 22:00:00 : #links=16 #nodes=1
2015-10-05 15:00:43,106  INFO QSim:445 SIMULATION (NEW QSim) AT 22:00:00 : #Veh=3023 lost=0 simT=74284.0s realT=13s; (s/r): 5714.153846153846
2015-10-05 15:00:43,106  INFO Gbl:52 used RAM: 660801008B = 645313kB = 630MB  free: 141359632B = 134MB  total: 802160640B = 765MB
2015-10-05 15:00:43,414  INFO QNetsimEngine:367 SIMULATION (QNetsimEngine) AT 23:00:00 : #links=11 #nodes=2
2015-10-05 15:00:43,415  INFO QSim:445 SIMULATION (NEW QSim) AT 23:00:00 : #Veh=152 lost=0 simT=77884.0s realT=14s; (s/r): 5563.142857142857
2015-10-05 15:00:43,415  INFO Gbl:52 used RAM: 688675000B = 672534kB = 656MB  free: 113485640B = 108MB  total: 802160640B = 765MB
2015-10-05 15:00:43,529  INFO QNetsimEngine:367 SIMULATION (QNetsimEngine) AT 24:00:00 : #links=0 #nodes=0
2015-10-05 15:00:43,529  INFO QSim:445 SIMULATION (NEW QSim) AT 24:00:00 : #Veh=28 lost=0 simT=81484.0s realT=14s; (s/r): 5820.285714285715
2015-10-05 15:00:43,529  INFO Gbl:52 used RAM: 690084088B = 673910kB = 658MB  free: 112076552B = 106MB  total: 802160640B = 765MB
2015-10-05 15:00:43,533  INFO AbstractController$6:329 ### ITERATION 1 fires after mobsim event
2015-10-05 15:00:43,533  INFO ControlerListenerManager:244 calling notifyAfterMobsim on org.matsim.core.controler.corelisteners.EventsHandlingImpl
2015-10-05 15:00:43,533  INFO Gbl:185 Thread performance: Thread=class org.matsim.core.events.SimStepParallelEventsManagerImpl$ProcessEventsRunnable0  cpu-time=11.609375sec
2015-10-05 15:00:43,533  INFO ControlerListenerManager:249 calling notifyAfterMobsim on org.matsim.analysis.LegTimesControlerListener
2015-10-05 15:00:43,534  INFO LegTimesControlerListener:50 [1] average trip (probably: leg) duration is: 245 seconds = 00:04:05
2015-10-05 15:00:43,534  INFO ControlerListenerManager:252 [it.1] all ControlerAfterMobsimListeners called.
2015-10-05 15:00:43,534  INFO AbstractController$4:266 ### ITERATION 1 fires scoring event
2015-10-05 15:00:43,534  INFO ControlerListenerManager:184 calling notifyScoring on org.matsim.core.controler.corelisteners.PlansScoringImpl
2015-10-05 15:00:43,692  INFO EventsToScore:178 it: 1 msaStart: null
2015-10-05 15:00:43,729  INFO ControlerListenerManager:195 [it.1] all ControlerScoringListeners called.
2015-10-05 15:00:43,729  INFO AbstractController$5:274 ### ITERATION 1 fires iteration end event
2015-10-05 15:00:43,730  INFO ControlerListenerManager:161 calling notifyIterationEnds on org.matsim.core.controler.corelisteners.EventsHandlingImpl
2015-10-05 15:00:43,796  INFO EventsManagerImpl:161 removing Event-Handler: org.matsim.core.events.algorithms.EventWriterXML
2015-10-05 15:00:43,796  INFO EventsManagerImpl:161 removing Event-Handler: org.matsim.core.events.algorithms.EventWriterXML
2015-10-05 15:00:43,796  INFO ControlerListenerManager:161 calling notifyIterationEnds on org.matsim.core.controler.corelisteners.PlansScoringImpl
2015-10-05 15:00:43,796  INFO EventsManagerImpl:161 removing Event-Handler: org.matsim.core.scoring.EventsToScore
2015-10-05 15:00:43,796  INFO EventsManagerImpl:161 removing Event-Handler: org.matsim.core.scoring.EventsToScore
2015-10-05 15:00:43,801  INFO TravelDistanceStats:122 [TravelDistanceStats] using 2 thread(s).
2015-10-05 15:00:43,910  INFO TravelDistanceStats:135 [TravelDistanceStats] all threads finished.
2015-10-05 15:00:43,910  INFO TravelDistanceStats:155 -- average of the average leg distance per plan (executed plans only): 1777.7449019688602
2015-10-05 15:00:43,910  INFO TravelDistanceStats:156 (TravelDistanceStats takes an average over all legs where the simulation reports travelled distances. These are car legs, pt legs,
2015-10-05 15:00:43,910  INFO TravelDistanceStats:157 (and teleported legs whose route contains a distance.)
2015-10-05 15:00:44,001  INFO ControlerListenerManager:168 calling notifyIterationEnds on org.matsim.counts.CountsControlerListener
2015-10-05 15:00:44,001  INFO ControlerListenerManager:168 calling notifyIterationEnds on org.matsim.analysis.ScoreStatsControlerListener
2015-10-05 15:00:44,040  INFO ScoreStatsControlerListener:187 -- avg. score of the executed plan of each agent: 4.334840346613176
2015-10-05 15:00:44,040  INFO ScoreStatsControlerListener:188 -- avg. score of the worst plan of each agent: 3.6905587878974964
2015-10-05 15:00:44,040  INFO ScoreStatsControlerListener:189 -- avg. of the avg. plan score per agent: 4.42171765046609
2015-10-05 15:00:44,040  INFO ScoreStatsControlerListener:190 -- avg. score of the best plan of each agent: 5.152876513034902
2015-10-05 15:00:44,110  INFO ControlerListenerManager:168 calling notifyIterationEnds on org.matsim.analysis.LegHistogramListener
2015-10-05 15:00:44,126  INFO LegHistogramListener:78 number of legs:	359599	100%
2015-10-05 15:00:44,126  INFO LegHistogramListener:85 number of pt legs:	106189	29.52983740221747%
2015-10-05 15:00:44,126  INFO LegHistogramListener:85 number of transit_walk legs:	253410	70.47016259778253%
2015-10-05 15:00:44,627  INFO ControlerListenerManager:168 calling notifyIterationEnds on org.matsim.analysis.LinkStatsControlerListener
2015-10-05 15:00:44,627  INFO ControlerListenerManager:172 [it.1] all ControlerIterationEndsListeners called.
2015-10-05 15:00:44,730  INFO AbstractController:284 ### ITERATION 1 ENDS
2015-10-05 15:00:44,730  INFO AbstractController:285 ###################################################
2015-10-05 15:00:44,730  INFO AbstractController:203 S H U T D O W N   ---   start shutdown.
2015-10-05 15:00:44,731  INFO ControlerListenerManager:122 calling notifyShutdown on org.matsim.core.controler.corelisteners.EventsHandlingImpl
2015-10-05 15:00:44,731  INFO ControlerListenerManager:122 calling notifyShutdown on org.matsim.core.controler.corelisteners.PlansScoringImpl
2015-10-05 15:00:44,731  INFO ControlerListenerManager:122 calling notifyShutdown on org.matsim.core.controler.corelisteners.DumpDataAtEndImpl
2015-10-05 15:00:44,751  INFO Counter:51 [PopulationWriter] dumped person # 1
2015-10-05 15:00:44,751  INFO Counter:51 [PopulationWriter] dumped person # 2
2015-10-05 15:00:44,752  INFO Counter:51 [PopulationWriter] dumped person # 4
2015-10-05 15:00:44,752  INFO Counter:51 [PopulationWriter] dumped person # 8
2015-10-05 15:00:44,753  INFO Counter:51 [PopulationWriter] dumped person # 16
2015-10-05 15:00:44,754  INFO Counter:51 [PopulationWriter] dumped person # 32
2015-10-05 15:00:44,756  INFO Counter:51 [PopulationWriter] dumped person # 64
2015-10-05 15:00:44,761  INFO Counter:51 [PopulationWriter] dumped person # 128
2015-10-05 15:00:44,771  INFO Counter:51 [PopulationWriter] dumped person # 256
2015-10-05 15:00:44,788  INFO Counter:51 [PopulationWriter] dumped person # 512
2015-10-05 15:00:44,822  INFO Counter:51 [PopulationWriter] dumped person # 1024
2015-10-05 15:00:44,890  INFO Counter:51 [PopulationWriter] dumped person # 2048
2015-10-05 15:00:45,031  INFO Counter:51 [PopulationWriter] dumped person # 4096
2015-10-05 15:00:45,315  INFO Counter:51 [PopulationWriter] dumped person # 8192
2015-10-05 15:00:45,866  INFO Counter:51 [PopulationWriter] dumped person # 16384
2015-10-05 15:00:46,978  INFO Counter:51 [PopulationWriter] dumped person # 32768
2015-10-05 15:00:48,562  INFO PopulationWriter:95 Population written to: ./output/output_plans.xml.gz
2015-10-05 15:00:48,563  INFO Counter:57 [PopulationWriter] dumped person # 59487
2015-10-05 15:00:48,571  INFO NetworkWriter:46 Writing network to file: ./output/output_network.xml.gz...
2015-10-05 15:00:48,604  INFO NetworkWriter:49 done.
2015-10-05 15:00:48,623  INFO VehicleWriterV1:55 Vehicles written to: ./output/output_transitVehicles.xml.gz
2015-10-05 15:00:48,623  INFO VehicleWriterV1:55 Vehicles written to: ./output/output_vehicles.xml.gz
2015-10-05 15:00:48,638  INFO Counter:57 [HouseholdsWriter] dumped household # 0
2015-10-05 15:00:48,642  INFO LaneDefinitionsWriter20:62 Using LaneDefinitionWriter20...
2015-10-05 15:00:48,642  INFO LaneDefinitionsWriter20:71 writing to file: ./output/output_lanes.xml.gz
2015-10-05 15:00:48,775  INFO ControlerListenerManager:127 calling notifyShutdown on org.matsim.analysis.ScoreStatsControlerListener
2015-10-05 15:00:48,775  INFO ControlerListenerManager:130 all ControlerShutdownListeners called.
2015-10-05 15:00:48,775  INFO AbstractController:226 S H U T D O W N   ---   shutdown completed.
2015-10-05 15:00:48,775  INFO OutputDirectoryLogging:168 closing the logfile, i.e. messages sent to the logger after this message are not written to the logfile.
