2016-02-01 16:56:15,155  INFO Gbl:57 JVM: 1.8.0_20; Oracle Corporation; mixed mode; 64-bit
2016-02-01 16:56:15,155  INFO Gbl:61 OS: Windows 8.1; 6.3; amd64
2016-02-01 16:56:15,156  INFO Gbl:64 CPU cores: 8
2016-02-01 16:56:15,157  INFO Gbl:65 max. Memory: 1803.0MB (1890582528B)
2016-02-01 16:56:15,157  INFO Gbl:103 MATSim-Build: r${buildNumber} (${timestamp})
2016-02-01 16:56:15,157  INFO AbstractController:61 Used Controler-Class: org.matsim.core.controler.Controler
2016-02-01 16:56:15,203  INFO ScenarioLoaderImpl:100 loading scenario from base directory: C:\MATSim\workspace-mars\dta-brt\
2016-02-01 16:56:15,203  INFO ScenarioLoaderImpl:123 loading network from ./input/specialNetwork.xml
2016-02-01 16:56:15,205  INFO MatsimXmlParser:145 starting to parse xml from file ./input/specialNetwork.xml ...
2016-02-01 16:56:15,207  INFO MatsimNetworkReader:83 using network_v1-reader.
2016-02-01 16:56:15,208  INFO MatsimXmlParser:253 Trying to load http://www.matsim.org/files/dtd/network_v1.dtd. In some cases (e.g. network interface up but no connection), this may take a bit.
2016-02-01 16:56:15,415  INFO NetworkImpl:134  node # 1
2016-02-01 16:56:15,415  INFO NetworkImpl:134  node # 2
2016-02-01 16:56:15,415  INFO NetworkImpl:134  node # 4
2016-02-01 16:56:15,416  INFO NetworkImpl:134  node # 8
2016-02-01 16:56:15,417  INFO NetworkImpl:134  node # 16
2016-02-01 16:56:15,418  INFO NetworkImpl:134  node # 32
2016-02-01 16:56:15,421  INFO NetworkImpl:134  node # 64
2016-02-01 16:56:15,426  INFO NetworkImpl:134  node # 128
2016-02-01 16:56:15,434  INFO NetworkImpl:134  node # 256
2016-02-01 16:56:15,445  INFO NetworkImpl:134  node # 512
2016-02-01 16:56:15,461  INFO NetworkImpl:134  node # 1024
2016-02-01 16:56:15,485  INFO NetworkImpl:130  link # 1
2016-02-01 16:56:15,485  INFO NetworkImpl:130  link # 2
2016-02-01 16:56:15,486  INFO NetworkImpl:130  link # 4
2016-02-01 16:56:15,486  INFO NetworkImpl:130  link # 8
2016-02-01 16:56:15,487  INFO NetworkImpl:130  link # 16
2016-02-01 16:56:15,489  INFO NetworkImpl:130  link # 32
2016-02-01 16:56:15,491  INFO NetworkImpl:130  link # 64
2016-02-01 16:56:15,495  INFO NetworkImpl:130  link # 128
2016-02-01 16:56:15,499  INFO NetworkImpl:130  link # 256
2016-02-01 16:56:15,503  WARN LinkImpl:111 [from=to=[id=56][coord=[x=1063203.287337012][y=877613.5198577307]][type=null][nof_inlinks=1][nof_outlinks=1] link is a loop]
2016-02-01 16:56:15,503  WARN LinkImpl:113  Future occurences of this logging statement are suppressed.
2016-02-01 16:56:15,504  WARN NodeImpl:98 [id=56][coord=[x=1063203.287337012][y=877613.5198577307]][type=null][nof_inlinks=1][nof_outlinks=2][inlink_id=56-56 is now in- and out-link]
2016-02-01 16:56:15,504  WARN NodeImpl:99  This message given only once.
2016-02-01 16:56:15,509  INFO NetworkImpl:130  link # 512
2016-02-01 16:56:15,528  INFO NetworkImpl:130  link # 1024
2016-02-01 16:56:15,544  INFO NetworkImpl:130  link # 2048
2016-02-01 16:56:15,555  INFO ScenarioLoaderImpl:147 no facilities file set in config, therefore not loading any facilities.  This is not a problem except if you are using facilities
2016-02-01 16:56:15,555  INFO ScenarioLoaderImpl:155 no facility-attributes file set in config, not loading any facility attributes
2016-02-01 16:56:15,555  INFO ScenarioLoaderImpl:162 loading population from ./input/plans_sitm_cali_01.04.2014_40porc_final_dummy.xml
2016-02-01 16:56:15,560  INFO MatsimXmlParser:145 starting to parse xml from file ./input/plans_sitm_cali_01.04.2014_40porc_final_dummy.xml ...
2016-02-01 16:56:15,563  INFO MatsimPopulationReader:86 using population_v5-reader.
2016-02-01 16:56:15,563  INFO MatsimXmlParser:253 Trying to load http://www.matsim.org/files/dtd/population_v5.dtd. In some cases (e.g. network interface up but no connection), this may take a bit.
2016-02-01 16:56:15,790  INFO PopulationImpl:176  person # 1
2016-02-01 16:56:15,791  INFO PopulationImpl:176  person # 2
2016-02-01 16:56:15,791  INFO PopulationImpl:176  person # 4
2016-02-01 16:56:15,793  INFO PopulationImpl:176  person # 8
2016-02-01 16:56:15,796  INFO PopulationImpl:176  person # 16
2016-02-01 16:56:15,802  INFO PopulationImpl:176  person # 32
2016-02-01 16:56:15,812  INFO PopulationImpl:176  person # 64
2016-02-01 16:56:15,822  INFO PopulationImpl:176  person # 128
2016-02-01 16:56:15,831  INFO PopulationImpl:176  person # 256
2016-02-01 16:56:15,845  INFO PopulationImpl:176  person # 512
2016-02-01 16:56:15,866  INFO PopulationImpl:176  person # 1024
2016-02-01 16:56:15,911  INFO PopulationImpl:176  person # 2048
2016-02-01 16:56:15,999  INFO PopulationImpl:176  person # 4096
2016-02-01 16:56:16,137  INFO PopulationImpl:176  person # 8192
2016-02-01 16:56:16,388  INFO PopulationImpl:176  person # 16384
2016-02-01 16:56:16,682  INFO PopulationImpl:176  person # 32768
2016-02-01 16:56:16,843  INFO PopulationImpl:176  person # 42786
2016-02-01 16:56:16,844  INFO ScenarioLoaderImpl:178 no person-attributes file set in config, not loading any person attributes
2016-02-01 16:56:16,844  INFO ScenarioLoaderImpl:190 no households file set in config, not loading households
2016-02-01 16:56:16,844  INFO ScenarioLoaderImpl:198 no household-attributes file set in config, not loading any household attributes
2016-02-01 16:56:16,849 DEBUG MatsimFileTypeGuesser:147 Detected public id: null
2016-02-01 16:56:16,849 DEBUG MatsimFileTypeGuesser:148 Detected system Id: http://www.matsim.org/files/dtd/transitSchedule_v1.dtd
2016-02-01 16:56:16,851  INFO MatsimXmlParser:145 starting to parse xml from file ./input/transitSchedule_MAX_VEHICLES.xml ...
2016-02-01 16:56:16,853  INFO MatsimXmlParser:253 Trying to load http://www.matsim.org/files/dtd/transitSchedule_v1.dtd. In some cases (e.g. network interface up but no connection), this may take a bit.
2016-02-01 16:56:17,078  INFO ScenarioLoaderImpl:225 loading transit vehicles from ./input/transitVehicles_MAX_VEHICLES.xml
2016-02-01 16:56:17,080  INFO MatsimXmlParser:145 starting to parse xml from file ./input/transitVehicles_MAX_VEHICLES.xml ...
2016-02-01 16:56:17,083  INFO MatsimXmlParser:253 Trying to load http://www.matsim.org/files/dtd/vehicleDefinitions_v1.0.xsd. In some cases (e.g. network interface up but no connection), this may take a bit.
2016-02-01 16:56:17,319  INFO MatsimXmlParser:253 Trying to load http://www.matsim.org/files/dtd/matsimCommon.xsd. In some cases (e.g. network interface up but no connection), this may take a bit.
2016-02-01 16:56:17,551  INFO MatsimXmlParser:253 Trying to load http://www.matsim.org/files/dtd/vehicleDefinitionsEnumTypes.xsd. In some cases (e.g. network interface up but no connection), this may take a bit.
2016-02-01 16:56:17,804  INFO Counter:51  vehicles # 1
2016-02-01 16:56:17,804  INFO Counter:51  vehicles # 2
2016-02-01 16:56:17,805  INFO Counter:51  vehicles # 4
2016-02-01 16:56:17,805  INFO Counter:51  vehicles # 8
2016-02-01 16:56:17,807  INFO Counter:51  vehicles # 16
2016-02-01 16:56:17,809  INFO Counter:51  vehicles # 32
2016-02-01 16:56:17,813  INFO Counter:51  vehicles # 64
2016-02-01 16:56:17,820  INFO Counter:51  vehicles # 128
2016-02-01 16:56:17,830  INFO Counter:51  vehicles # 256
2016-02-01 16:56:17,837  INFO Counter:51  vehicles # 512
2016-02-01 16:56:17,846  INFO Counter:51  vehicles # 1024
2016-02-01 16:56:17,857  INFO Controler:255 setting up transit simulation
2016-02-01 16:56:18,522  INFO EventsManagerImpl:144 adding Event-Handler: org.matsim.core.trafficmonitoring.TravelTimeCalculator
2016-02-01 16:56:18,522  INFO EventsManagerImpl:148   org.matsim.api.core.v01.events.handler.LinkEnterEventHandler
2016-02-01 16:56:18,523  INFO EventsManagerImpl:207     > org.matsim.api.core.v01.events.LinkEnterEvent
2016-02-01 16:56:18,524  INFO EventsManagerImpl:148   org.matsim.api.core.v01.events.handler.LinkLeaveEventHandler
2016-02-01 16:56:18,524  INFO EventsManagerImpl:207     > org.matsim.api.core.v01.events.LinkLeaveEvent
2016-02-01 16:56:18,524  INFO EventsManagerImpl:148   org.matsim.api.core.v01.events.handler.Wait2LinkEventHandler
2016-02-01 16:56:18,525  INFO EventsManagerImpl:207     > org.matsim.api.core.v01.events.Wait2LinkEvent
2016-02-01 16:56:18,525  INFO EventsManagerImpl:148   org.matsim.api.core.v01.events.handler.VehicleLeavesTrafficEventHandler
2016-02-01 16:56:18,526  INFO EventsManagerImpl:207     > org.matsim.api.core.v01.events.VehicleLeavesTrafficEvent
2016-02-01 16:56:18,527  INFO EventsManagerImpl:148   org.matsim.core.api.experimental.events.handler.VehicleArrivesAtFacilityEventHandler
2016-02-01 16:56:18,528  INFO EventsManagerImpl:207     > org.matsim.core.api.experimental.events.VehicleArrivesAtFacilityEvent
2016-02-01 16:56:18,528  INFO EventsManagerImpl:148   org.matsim.api.core.v01.events.handler.VehicleAbortsEventHandler
2016-02-01 16:56:18,529  INFO EventsManagerImpl:207     > org.matsim.api.core.v01.events.VehicleAbortsEvent
2016-02-01 16:56:18,530  INFO EventsManagerImpl:156 
2016-02-01 16:56:18,530  INFO EventsManagerImpl:144 adding Event-Handler: org.matsim.core.trafficmonitoring.TravelTimeCalculator
2016-02-01 16:56:18,530  INFO EventsManagerImpl:148   org.matsim.api.core.v01.events.handler.LinkEnterEventHandler
2016-02-01 16:56:18,531  INFO EventsManagerImpl:207     > org.matsim.api.core.v01.events.LinkEnterEvent
2016-02-01 16:56:18,531  INFO EventsManagerImpl:148   org.matsim.api.core.v01.events.handler.LinkLeaveEventHandler
2016-02-01 16:56:18,531  INFO EventsManagerImpl:207     > org.matsim.api.core.v01.events.LinkLeaveEvent
2016-02-01 16:56:18,531  INFO EventsManagerImpl:148   org.matsim.api.core.v01.events.handler.Wait2LinkEventHandler
2016-02-01 16:56:18,532  INFO EventsManagerImpl:207     > org.matsim.api.core.v01.events.Wait2LinkEvent
2016-02-01 16:56:18,532  INFO EventsManagerImpl:148   org.matsim.api.core.v01.events.handler.VehicleLeavesTrafficEventHandler
2016-02-01 16:56:18,533  INFO EventsManagerImpl:207     > org.matsim.api.core.v01.events.VehicleLeavesTrafficEvent
2016-02-01 16:56:18,533  INFO EventsManagerImpl:148   org.matsim.core.api.experimental.events.handler.VehicleArrivesAtFacilityEventHandler
2016-02-01 16:56:18,533  INFO EventsManagerImpl:207     > org.matsim.core.api.experimental.events.VehicleArrivesAtFacilityEvent
2016-02-01 16:56:18,533  INFO EventsManagerImpl:148   org.matsim.api.core.v01.events.handler.VehicleAbortsEventHandler
2016-02-01 16:56:18,534  INFO EventsManagerImpl:207     > org.matsim.api.core.v01.events.VehicleAbortsEvent
2016-02-01 16:56:18,534  INFO EventsManagerImpl:156 
2016-02-01 16:56:18,537  INFO CalcLinkStats:151  resetting `count' to zero.  This info is here since we want to check when this is happening during normal simulation runs.  kai, jan'11
2016-02-01 16:56:18,544  INFO EventsManagerImpl:144 adding Event-Handler: org.matsim.analysis.VolumesAnalyzer
2016-02-01 16:56:18,545  INFO EventsManagerImpl:148   org.matsim.api.core.v01.events.handler.LinkLeaveEventHandler
2016-02-01 16:56:18,545  INFO EventsManagerImpl:207     > org.matsim.api.core.v01.events.LinkLeaveEvent
2016-02-01 16:56:18,545  INFO EventsManagerImpl:148   org.matsim.api.core.v01.events.handler.PersonDepartureEventHandler
2016-02-01 16:56:18,545  INFO EventsManagerImpl:207     > org.matsim.api.core.v01.events.PersonDepartureEvent
2016-02-01 16:56:18,546  INFO EventsManagerImpl:156 
2016-02-01 16:56:18,546  INFO EventsManagerImpl:144 adding Event-Handler: org.matsim.analysis.VolumesAnalyzer
2016-02-01 16:56:18,546  INFO EventsManagerImpl:148   org.matsim.api.core.v01.events.handler.LinkLeaveEventHandler
2016-02-01 16:56:18,546  INFO EventsManagerImpl:207     > org.matsim.api.core.v01.events.LinkLeaveEvent
2016-02-01 16:56:18,546  INFO EventsManagerImpl:148   org.matsim.api.core.v01.events.handler.PersonDepartureEventHandler
2016-02-01 16:56:18,547  INFO EventsManagerImpl:207     > org.matsim.api.core.v01.events.PersonDepartureEvent
2016-02-01 16:56:18,547  INFO EventsManagerImpl:156 
2016-02-01 16:56:18,549  INFO Injector:81 org.matsim.api.core.v01.Scenario
2016-02-01 16:56:18,550  INFO Injector:82    -> of(org.matsim.core.scenario.MutableScenario@399f45b1)
2016-02-01 16:56:18,550  INFO Injector:81 org.matsim.pt.transitSchedule.api.TransitSchedule
2016-02-01 16:56:18,550  INFO Injector:82    -> Key[type=org.matsim.core.scenario.ScenarioByInstanceModule$TransitScheduleProvider, annotation=[none]]
2016-02-01 16:56:18,550  INFO Injector:81 org.matsim.vehicles.Vehicles
2016-02-01 16:56:18,550  INFO Injector:82    -> Key[type=org.matsim.core.scenario.ScenarioByInstanceModule$TransitVehiclesProvider, annotation=[none]]
2016-02-01 16:56:18,551  INFO Injector:81 org.matsim.api.core.v01.network.Network
2016-02-01 16:56:18,554  INFO Injector:82    -> @Provides org.matsim.core.scenario.ScenarioByInstanceModule.provideNetwork(ScenarioByInstanceModule.java:37)
2016-02-01 16:56:18,554  INFO Injector:81 org.matsim.lanes.data.v20.Lanes
2016-02-01 16:56:18,554  INFO Injector:82    -> @Provides org.matsim.core.scenario.ScenarioByInstanceModule.provideLanes(ScenarioByInstanceModule.java:64)
2016-02-01 16:56:18,554  INFO Injector:81 org.matsim.vehicles.Vehicles
2016-02-01 16:56:18,555  INFO Injector:82    -> @Provides org.matsim.core.scenario.ScenarioByInstanceModule.provideVehicles(ScenarioByInstanceModule.java:59)
2016-02-01 16:56:18,555  INFO Injector:81 org.matsim.households.Households
2016-02-01 16:56:18,555  INFO Injector:82    -> @Provides org.matsim.core.scenario.ScenarioByInstanceModule.provideHouseholds(ScenarioByInstanceModule.java:54)
2016-02-01 16:56:18,555  INFO Injector:81 org.matsim.api.core.v01.population.Population
2016-02-01 16:56:18,555  INFO Injector:82    -> @Provides org.matsim.core.scenario.ScenarioByInstanceModule.providePopulation(ScenarioByInstanceModule.java:41)
2016-02-01 16:56:18,555  INFO Injector:81 org.matsim.api.core.v01.population.PopulationFactory
2016-02-01 16:56:18,555  INFO Injector:82    -> @Provides org.matsim.core.scenario.ScenarioByInstanceModule.providePopulationFactory(ScenarioByInstanceModule.java:45)
2016-02-01 16:56:18,555  INFO Injector:81 org.matsim.facilities.ActivityFacilities
2016-02-01 16:56:18,555  INFO Injector:82    -> @Provides org.matsim.core.scenario.ScenarioByInstanceModule.provideActivityFacilities(ScenarioByInstanceModule.java:49)
2016-02-01 16:56:18,556  INFO Injector:81 org.matsim.core.controler.corelisteners.PlansScoring
2016-02-01 16:56:18,557  INFO Injector:82    -> FactoryProxy{key=Key[type=org.matsim.core.controler.corelisteners.PlansScoring, annotation=[none]], provider=com.google.inject.internal.ConstructorBindingImpl$Factory@49139829[Scopes.SINGLETON]}
2016-02-01 16:56:18,557  INFO Injector:81 org.matsim.core.controler.corelisteners.PlansReplanning
2016-02-01 16:56:18,557  INFO Injector:82    -> FactoryProxy{key=Key[type=org.matsim.core.controler.corelisteners.PlansReplanning, annotation=[none]], provider=com.google.inject.internal.ConstructorBindingImpl$Factory@4efbca5a[Scopes.SINGLETON]}
2016-02-01 16:56:18,557  INFO Injector:81 org.matsim.core.controler.corelisteners.PlansDumping
2016-02-01 16:56:18,557  INFO Injector:82    -> FactoryProxy{key=Key[type=org.matsim.core.controler.corelisteners.PlansDumping, annotation=[none]], provider=com.google.inject.internal.ConstructorBindingImpl$Factory@77fbd92c[Scopes.SINGLETON]}
2016-02-01 16:56:18,557  INFO Injector:81 org.matsim.core.controler.corelisteners.EventsHandling
2016-02-01 16:56:18,557  INFO Injector:82    -> FactoryProxy{key=Key[type=org.matsim.core.controler.corelisteners.EventsHandling, annotation=[none]], provider=com.google.inject.internal.ConstructorBindingImpl$Factory@72967906[Scopes.SINGLETON]}
2016-02-01 16:56:18,558  INFO Injector:81 org.matsim.core.controler.corelisteners.DumpDataAtEnd
2016-02-01 16:56:18,558  INFO Injector:82    -> FactoryProxy{key=Key[type=org.matsim.core.controler.corelisteners.DumpDataAtEnd, annotation=[none]], provider=com.google.inject.internal.ConstructorBindingImpl$Factory@747ddf94[Scopes.SINGLETON]}
2016-02-01 16:56:18,558  INFO Injector:81 org.matsim.core.api.experimental.events.EventsManager
2016-02-01 16:56:18,558  INFO Injector:82    -> FactoryProxy{key=Key[type=org.matsim.core.api.experimental.events.EventsManager, annotation=[none]], provider=com.google.inject.internal.ConstructorBindingImpl$Factory@55183b20}[Scopes.SINGLETON]
2016-02-01 16:56:18,558  INFO Injector:81 org.matsim.core.mobsim.framework.Mobsim
2016-02-01 16:56:18,558  INFO Injector:82    -> Key[type=org.matsim.core.mobsim.qsim.QSimProvider, annotation=[none]]
2016-02-01 16:56:18,558  INFO Injector:81 org.matsim.core.trafficmonitoring.TravelTimeCalculator
2016-02-01 16:56:18,559  INFO Injector:82    -> Key[type=org.matsim.core.trafficmonitoring.TravelTimeCalculatorModule$TravelTimeCalculatorProvider, annotation=[none]][Scopes.SINGLETON]
2016-02-01 16:56:18,559  INFO Injector:81 org.matsim.core.router.util.TravelTime
2016-02-01 16:56:18,559  INFO Injector:82    -> Key[type=org.matsim.core.trafficmonitoring.TravelTimeCalculatorModule$FromTravelTimeCalculator, annotation=[none]]
2016-02-01 16:56:18,559  INFO Injector:81 org.matsim.core.router.costcalculators.TravelDisutilityFactory
2016-02-01 16:56:18,559  INFO Injector:82    -> of(org.matsim.core.router.costcalculators.RandomizingTimeDistanceTravelDisutility$Builder@74f0ea28)
2016-02-01 16:56:18,559  INFO Injector:81 org.matsim.core.scoring.ScoringFunctionFactory
2016-02-01 16:56:18,559  INFO Injector:82    -> FactoryProxy{key=Key[type=org.matsim.core.scoring.ScoringFunctionFactory, annotation=[none]], provider=com.google.inject.internal.ConstructorBindingImpl$Factory@3349e9bb}
2016-02-01 16:56:18,559  INFO Injector:81 org.matsim.core.scoring.functions.CharyparNagelScoringParametersForPerson
2016-02-01 16:56:18,559  INFO Injector:82    -> FactoryProxy{key=Key[type=org.matsim.core.scoring.functions.CharyparNagelScoringParametersForPerson, annotation=[none]], provider=com.google.inject.internal.ConstructorBindingImpl$Factory@49e53c76}
2016-02-01 16:56:18,560  INFO Injector:81 org.matsim.core.router.util.LeastCostPathCalculatorFactory
2016-02-01 16:56:18,560  INFO Injector:82    -> FactoryProxy{key=Key[type=org.matsim.core.router.util.LeastCostPathCalculatorFactory, annotation=[none]], provider=com.google.inject.internal.ConstructorBindingImpl$Factory@55b699ef[Scopes.SINGLETON]}
2016-02-01 16:56:18,560  INFO Injector:81 org.matsim.pt.router.TransitRouter
2016-02-01 16:56:18,560  INFO Injector:82    -> Key[type=org.matsim.pt.router.TransitRouterImplFactory, annotation=[none]]
2016-02-01 16:56:18,560  INFO Injector:81 org.matsim.core.router.RoutingModule
2016-02-01 16:56:18,560  INFO Injector:82    -> org.matsim.core.router.TripRouterFactoryModule$PseudoTransitRoutingModuleProvider@6fe7aac8
2016-02-01 16:56:18,560  INFO Injector:81 org.matsim.core.router.RoutingModule
2016-02-01 16:56:18,561  INFO Injector:82    -> org.matsim.core.router.TripRouterFactoryModule$TeleportationRoutingModuleProvider@1d119efb
2016-02-01 16:56:18,561  INFO Injector:81 org.matsim.core.router.RoutingModule
2016-02-01 16:56:18,561  INFO Injector:82    -> org.matsim.core.router.TripRouterFactoryModule$TeleportationRoutingModuleProvider@659a969b
2016-02-01 16:56:18,561  INFO Injector:81 org.matsim.core.router.RoutingModule
2016-02-01 16:56:18,561  INFO Injector:82    -> org.matsim.core.router.TripRouterFactoryModule$TeleportationRoutingModuleProvider@76908cc0
2016-02-01 16:56:18,561  INFO Injector:81 org.matsim.core.router.RoutingModule
2016-02-01 16:56:18,561  INFO Injector:82    -> org.matsim.core.router.TripRouterFactoryModule$NetworkRoutingModuleProvider@2473d930
2016-02-01 16:56:18,561  INFO Injector:81 org.matsim.core.router.RoutingModule
2016-02-01 16:56:18,562  INFO Injector:82    -> Key[type=org.matsim.core.router.TripRouterFactoryModule$TransitRoutingModuleProvider, annotation=[none]]
2016-02-01 16:56:18,562  INFO Injector:81 org.matsim.core.router.RoutingModule
2016-02-01 16:56:18,562  INFO Injector:82    -> FactoryProxy{key=Key[type=org.matsim.core.router.RoutingModule, annotation=@com.google.inject.name.Named(value=transit_walk)], provider=org.matsim.core.router.TripRouterFactoryModule$TeleportationRoutingModuleProvider@659a969b}
2016-02-01 16:56:18,562  INFO Injector:81 org.matsim.core.router.MainModeIdentifier
2016-02-01 16:56:18,562  INFO Injector:82    -> FactoryProxy{key=Key[type=org.matsim.core.router.MainModeIdentifier, annotation=[none]], provider=com.google.inject.internal.ConstructorBindingImpl$Factory@128d2484}
2016-02-01 16:56:18,562  INFO Injector:81 org.matsim.core.router.TripRouter
2016-02-01 16:56:18,562  INFO Injector:82    -> Key[type=org.matsim.core.router.TripRouterModule$RealTripRouterProvider, annotation=[none]]
2016-02-01 16:56:18,563  INFO Injector:81 org.matsim.core.replanning.selectors.GenericPlanSelector<org.matsim.api.core.v01.population.Plan, org.matsim.api.core.v01.population.Person>
2016-02-01 16:56:18,563  INFO Injector:82    -> FactoryProxy{key=Key[type=org.matsim.core.replanning.selectors.GenericPlanSelector<org.matsim.api.core.v01.population.Plan, org.matsim.api.core.v01.population.Person>, annotation=[none]], provider=com.google.inject.internal.ConstructorBindingImpl$Factory@4c583ecf}
2016-02-01 16:56:18,563  INFO Injector:81 org.matsim.core.replanning.PlanStrategy
2016-02-01 16:56:18,563  INFO Injector:82    -> Key[type=org.matsim.core.replanning.modules.KeepLastSelectedPlanStrategyFactory, annotation=[none]]
2016-02-01 16:56:18,563  INFO Injector:81 org.matsim.core.replanning.PlanStrategy
2016-02-01 16:56:18,563  INFO Injector:82    -> Key[type=org.matsim.core.replanning.modules.SelectBestPlanStrategyFactory, annotation=[none]]
2016-02-01 16:56:18,564  INFO Injector:81 org.matsim.core.replanning.PlanStrategy
2016-02-01 16:56:18,564  INFO Injector:82    -> Key[type=org.matsim.core.replanning.modules.SelectExpBetaPlanStrategyFactory, annotation=[none]]
2016-02-01 16:56:18,564  INFO Injector:81 org.matsim.core.replanning.PlanStrategy
2016-02-01 16:56:18,564  INFO Injector:82    -> Key[type=org.matsim.core.replanning.modules.ChangeExpBetaPlanStrategyFactory, annotation=[none]]
2016-02-01 16:56:18,564  INFO Injector:81 org.matsim.core.replanning.PlanStrategy
2016-02-01 16:56:18,564  INFO Injector:82    -> Key[type=org.matsim.core.replanning.modules.SelectRandomStrategyFactory, annotation=[none]]
2016-02-01 16:56:18,564  INFO Injector:81 org.matsim.core.replanning.PlanStrategy
2016-02-01 16:56:18,564  INFO Injector:82    -> Key[type=org.matsim.core.replanning.modules.SelectPathSizeLogitStrategyFactory, annotation=[none]]
2016-02-01 16:56:18,565  INFO Injector:81 org.matsim.core.replanning.PlanStrategy
2016-02-01 16:56:18,565  INFO Injector:82    -> Key[type=org.matsim.core.replanning.modules.ReRoutePlanStrategyFactory, annotation=[none]]
2016-02-01 16:56:18,565  INFO Injector:81 org.matsim.core.replanning.PlanStrategy
2016-02-01 16:56:18,565  INFO Injector:82    -> Key[type=org.matsim.core.replanning.modules.TimeAllocationMutatorPlanStrategyFactory, annotation=[none]]
2016-02-01 16:56:18,565  INFO Injector:81 org.matsim.core.replanning.PlanStrategy
2016-02-01 16:56:18,565  INFO Injector:82    -> Key[type=org.matsim.core.replanning.modules.TimeAllocationMutatorReRoutePlanStrategyFactory, annotation=[none]]
2016-02-01 16:56:18,565  INFO Injector:81 org.matsim.core.replanning.PlanStrategy
2016-02-01 16:56:18,565  INFO Injector:82    -> Key[type=org.matsim.core.replanning.modules.ChangeSingleLegModeStrategyFactory, annotation=[none]]
2016-02-01 16:56:18,566  INFO Injector:81 org.matsim.core.replanning.PlanStrategy
2016-02-01 16:56:18,566  INFO Injector:82    -> Key[type=org.matsim.core.replanning.modules.ChangeLegModeStrategyFactory, annotation=[none]]
2016-02-01 16:56:18,566  INFO Injector:81 org.matsim.core.replanning.PlanStrategy
2016-02-01 16:56:18,566  INFO Injector:82    -> Key[type=org.matsim.core.replanning.modules.SubtourModeChoiceStrategyFactory, annotation=[none]]
2016-02-01 16:56:18,566  INFO Injector:81 org.matsim.core.replanning.PlanStrategy
2016-02-01 16:56:18,566  INFO Injector:82    -> Key[type=org.matsim.core.replanning.modules.ChangeTripModeStrategyFactory, annotation=[none]]
2016-02-01 16:56:18,566  INFO Injector:81 org.matsim.core.replanning.PlanStrategy
2016-02-01 16:56:18,567  INFO Injector:82    -> Key[type=org.matsim.core.replanning.modules.ChangeSingleTripModeStrategyFactory, annotation=[none]]
2016-02-01 16:56:18,567  INFO Injector:81 org.matsim.core.replanning.PlanStrategy
2016-02-01 16:56:18,567  INFO Injector:82    -> Key[type=org.matsim.core.replanning.modules.TripSubtourModeChoiceStrategyFactory, annotation=[none]]
2016-02-01 16:56:18,567  INFO Injector:81 org.matsim.core.replanning.ReplanningContext
2016-02-01 16:56:18,567  INFO Injector:82    -> FactoryProxy{key=Key[type=org.matsim.core.replanning.ReplanningContext, annotation=[none]], provider=com.google.inject.internal.ConstructorBindingImpl$Factory@443118b0}
2016-02-01 16:56:18,567  INFO Injector:81 org.matsim.core.controler.listener.ControlerListener
2016-02-01 16:56:18,568  INFO Injector:82    -> FactoryProxy{key=Key[type=org.matsim.core.controler.listener.ControlerListener, annotation=@com.google.inject.multibindings.Element(setName=,uniqueId=143, type=MULTIBINDER, keyType=)], provider=com.google.inject.internal.ConstructorBindingImpl$Factory@618b19ad[Scopes.SINGLETON]}
2016-02-01 16:56:18,568  INFO Injector:81 org.matsim.core.controler.listener.ControlerListener
2016-02-01 16:56:18,568  INFO Injector:82    -> FactoryProxy{key=Key[type=org.matsim.core.controler.listener.ControlerListener, annotation=@com.google.inject.multibindings.Element(setName=,uniqueId=144, type=MULTIBINDER, keyType=)], provider=com.google.inject.internal.ConstructorBindingImpl$Factory@5e0e82ae}
2016-02-01 16:56:18,568  INFO Injector:81 org.matsim.core.controler.listener.ControlerListener
2016-02-01 16:56:18,568  INFO Injector:82    -> FactoryProxy{key=Key[type=org.matsim.core.controler.listener.ControlerListener, annotation=@com.google.inject.multibindings.Element(setName=,uniqueId=145, type=MULTIBINDER, keyType=)], provider=com.google.inject.internal.ConstructorBindingImpl$Factory@6b2ea799}
2016-02-01 16:56:18,568  INFO Injector:81 org.matsim.core.controler.listener.ControlerListener
2016-02-01 16:56:18,568  INFO Injector:82    -> FactoryProxy{key=Key[type=org.matsim.core.controler.listener.ControlerListener, annotation=@com.google.inject.multibindings.Element(setName=,uniqueId=146, type=MULTIBINDER, keyType=)], provider=com.google.inject.internal.ConstructorBindingImpl$Factory@36fc695d}
2016-02-01 16:56:18,569  INFO Injector:81 org.matsim.core.controler.listener.ControlerListener
2016-02-01 16:56:18,569  INFO Injector:82    -> FactoryProxy{key=Key[type=org.matsim.core.controler.listener.ControlerListener, annotation=@com.google.inject.multibindings.Element(setName=,uniqueId=147, type=MULTIBINDER, keyType=)], provider=com.google.inject.internal.ConstructorBindingImpl$Factory@3754a4bf[Scopes.SINGLETON]}
2016-02-01 16:56:18,569  INFO Injector:81 org.matsim.analysis.ScoreStats
2016-02-01 16:56:18,569  INFO Injector:82    -> FactoryProxy{key=Key[type=org.matsim.analysis.ScoreStats, annotation=[none]], provider=com.google.inject.internal.ConstructorBindingImpl$Factory@3754a4bf[Scopes.SINGLETON]}
2016-02-01 16:56:18,569  INFO Injector:81 org.matsim.core.controler.listener.ControlerListener
2016-02-01 16:56:18,569  INFO Injector:82    -> FactoryProxy{key=Key[type=org.matsim.core.controler.listener.ControlerListener, annotation=@com.google.inject.multibindings.Element(setName=,uniqueId=148, type=MULTIBINDER, keyType=)], provider=com.google.inject.internal.ConstructorBindingImpl$Factory@5b7a5baa}
2016-02-01 16:56:18,569  INFO Injector:81 org.matsim.counts.Counts<org.matsim.api.core.v01.network.Link>
2016-02-01 16:56:18,570  INFO Injector:82    -> @Provides org.matsim.counts.CountsModule.provideLinkCounts(CountsModule.java:59)[Scopes.SINGLETON]
2016-02-01 16:56:18,570  INFO Injector:81 org.matsim.core.controler.listener.ControlerListener
2016-02-01 16:56:18,570  INFO Injector:82    -> FactoryProxy{key=Key[type=org.matsim.core.controler.listener.ControlerListener, annotation=@com.google.inject.multibindings.Element(setName=,uniqueId=149, type=MULTIBINDER, keyType=)], provider=com.google.inject.internal.ConstructorBindingImpl$Factory@408d971b}
2016-02-01 16:56:18,570  INFO Injector:81 org.matsim.core.controler.OutputDirectoryHierarchy
2016-02-01 16:56:18,570  INFO Injector:82    -> of(org.matsim.core.controler.OutputDirectoryHierarchy@c730b35)
2016-02-01 16:56:18,571  INFO Injector:81 org.matsim.analysis.IterationStopWatch
2016-02-01 16:56:18,571  INFO Injector:82    -> of(org.matsim.analysis.IterationStopWatch@22555ebf)
2016-02-01 16:56:18,571  INFO Injector:81 org.matsim.core.controler.ControlerI
2016-02-01 16:56:18,571  INFO Injector:82    -> of(org.matsim.core.controler.Controler$2$1@34e9fd99)
2016-02-01 16:56:18,571  INFO Injector:81 org.matsim.core.router.RoutingModule
2016-02-01 16:56:18,571  INFO Injector:82    -> FactoryProxy{key=Key[type=org.matsim.core.router.RoutingModule, annotation=@com.google.inject.multibindings.Element(setName=,uniqueId=150, type=MAPBINDER, keyType=java.lang.String)], provider=Key[type=org.matsim.core.router.TripRouterFactoryModule$TransitRoutingModuleProvider, annotation=[none]]}
2016-02-01 16:56:18,571  INFO Injector:81 org.matsim.core.router.RoutingModule
2016-02-01 16:56:18,572  INFO Injector:82    -> FactoryProxy{key=Key[type=org.matsim.core.router.RoutingModule, annotation=@com.google.inject.multibindings.Element(setName=,uniqueId=152, type=MAPBINDER, keyType=java.lang.String)], provider=org.matsim.core.router.TripRouterFactoryModule$NetworkRoutingModuleProvider@2473d930}
2016-02-01 16:56:18,572  INFO Injector:81 org.matsim.core.router.RoutingModule
2016-02-01 16:56:18,572  INFO Injector:82    -> FactoryProxy{key=Key[type=org.matsim.core.router.RoutingModule, annotation=@com.google.inject.multibindings.Element(setName=,uniqueId=154, type=MAPBINDER, keyType=java.lang.String)], provider=FactoryProxy{key=Key[type=org.matsim.core.router.RoutingModule, annotation=@com.google.inject.name.Named(value=transit_walk)], provider=org.matsim.core.router.TripRouterFactoryModule$TeleportationRoutingModuleProvider@659a969b}}
2016-02-01 16:56:18,572  INFO Injector:81 org.matsim.core.router.RoutingModule
2016-02-01 16:56:18,572  INFO Injector:82    -> FactoryProxy{key=Key[type=org.matsim.core.router.RoutingModule, annotation=@com.google.inject.multibindings.Element(setName=,uniqueId=156, type=MAPBINDER, keyType=java.lang.String)], provider=org.matsim.core.router.TripRouterFactoryModule$PseudoTransitRoutingModuleProvider@6fe7aac8}
2016-02-01 16:56:18,572  INFO Injector:81 org.matsim.core.router.RoutingModule
2016-02-01 16:56:18,572  INFO Injector:82    -> FactoryProxy{key=Key[type=org.matsim.core.router.RoutingModule, annotation=@com.google.inject.multibindings.Element(setName=,uniqueId=158, type=MAPBINDER, keyType=java.lang.String)], provider=org.matsim.core.router.TripRouterFactoryModule$TeleportationRoutingModuleProvider@659a969b}
2016-02-01 16:56:18,573  INFO Injector:81 org.matsim.core.router.RoutingModule
2016-02-01 16:56:18,573  INFO Injector:82    -> FactoryProxy{key=Key[type=org.matsim.core.router.RoutingModule, annotation=@com.google.inject.multibindings.Element(setName=,uniqueId=160, type=MAPBINDER, keyType=java.lang.String)], provider=org.matsim.core.router.TripRouterFactoryModule$TeleportationRoutingModuleProvider@1d119efb}
2016-02-01 16:56:18,573  INFO Injector:81 org.matsim.core.router.RoutingModule
2016-02-01 16:56:18,573  INFO Injector:82    -> FactoryProxy{key=Key[type=org.matsim.core.router.RoutingModule, annotation=@com.google.inject.multibindings.Element(setName=,uniqueId=162, type=MAPBINDER, keyType=java.lang.String)], provider=org.matsim.core.router.TripRouterFactoryModule$TeleportationRoutingModuleProvider@76908cc0}
2016-02-01 16:56:18,573  INFO Injector:81 org.matsim.core.router.util.TravelTime
2016-02-01 16:56:18,573  INFO Injector:82    -> FactoryProxy{key=Key[type=org.matsim.core.router.util.TravelTime, annotation=@com.google.inject.multibindings.Element(setName=,uniqueId=164, type=MAPBINDER, keyType=java.lang.String)], provider=Key[type=org.matsim.core.trafficmonitoring.TravelTimeCalculatorModule$FromTravelTimeCalculator, annotation=[none]]}
2016-02-01 16:56:18,574  INFO Injector:81 org.matsim.core.router.costcalculators.TravelDisutilityFactory
2016-02-01 16:56:18,574  INFO Injector:82    -> FactoryProxy{key=Key[type=org.matsim.core.router.costcalculators.TravelDisutilityFactory, annotation=@com.google.inject.multibindings.Element(setName=,uniqueId=166, type=MAPBINDER, keyType=java.lang.String)], provider=ConstantFactory{value=org.matsim.core.router.costcalculators.RandomizingTimeDistanceTravelDisutility$Builder@74f0ea28}[Scopes.SINGLETON]}
2016-02-01 16:56:18,574  INFO Injector:81 org.matsim.core.scoring.EventsToScore
2016-02-01 16:56:18,574  INFO Injector:82    -> com.google.inject.internal.ConstructorBindingImpl$Factory@6150c3ec
2016-02-01 16:56:18,574  INFO Injector:81 org.matsim.core.router.SingleModeNetworksCache
2016-02-01 16:56:18,574  INFO Injector:82    -> com.google.inject.internal.ConstructorBindingImpl$Factory@dd05255[Scopes.SINGLETON]
2016-02-01 16:56:18,574  INFO Injector:81 org.matsim.core.replanning.StrategyManager
2016-02-01 16:56:18,575  INFO Injector:82    -> com.google.inject.internal.ConstructorBindingImpl$Factory@1f2586d6[Scopes.SINGLETON]
2016-02-01 16:56:18,575  INFO Injector:81 org.matsim.analysis.CalcLinkStats
2016-02-01 16:56:18,575  INFO Injector:82    -> com.google.inject.internal.ConstructorBindingImpl$Factory@5aa9e4eb[Scopes.SINGLETON]
2016-02-01 16:56:18,575  INFO Injector:81 org.matsim.analysis.LinkStatsControlerListener
2016-02-01 16:56:18,575  INFO Injector:82    -> com.google.inject.internal.ConstructorBindingImpl$Factory@618b19ad[Scopes.SINGLETON]
2016-02-01 16:56:18,575  INFO Injector:81 org.matsim.analysis.VolumesAnalyzer
2016-02-01 16:56:18,575  INFO Injector:82    -> com.google.inject.internal.ConstructorBindingImpl$Factory@217ed35e[Scopes.SINGLETON]
2016-02-01 16:56:18,576  INFO Injector:81 org.matsim.analysis.LegHistogram
2016-02-01 16:56:18,576  INFO Injector:82    -> com.google.inject.internal.ConstructorBindingImpl$Factory@31190526
2016-02-01 16:56:18,576  INFO Injector:81 org.matsim.analysis.CalcLegTimes
2016-02-01 16:56:18,576  INFO Injector:82    -> com.google.inject.internal.ConstructorBindingImpl$Factory@3eb25e1a[Scopes.SINGLETON]
2016-02-01 16:56:18,576  INFO Injector:81 org.matsim.analysis.TravelDistanceStats
2016-02-01 16:56:18,576  INFO Injector:82    -> com.google.inject.internal.ConstructorBindingImpl$Factory@f5958c9[Scopes.SINGLETON]
2016-02-01 16:56:18,576  INFO Injector:81 org.matsim.analysis.ScoreStatsControlerListener
2016-02-01 16:56:18,576  INFO Injector:82    -> com.google.inject.internal.ConstructorBindingImpl$Factory@3754a4bf[Scopes.SINGLETON]
2016-02-01 16:56:18,577  INFO Injector:81 org.matsim.counts.CountsModule$CountsInitializer
2016-02-01 16:56:18,577  INFO Injector:82    -> com.google.inject.internal.ConstructorBindingImpl$Factory@185a6e9[Scopes.SINGLETON]
2016-02-01 16:56:18,594  INFO StrategyManager:67 global innovation switch off after iteration: 2147483647
2016-02-01 16:56:18,596  INFO GenericStrategyManager:315 added change request:  iteration=-2147483648 newWeight=0.0 strategy=RandomPlanSelector_ReRoute
2016-02-01 16:56:18,596  INFO GenericStrategyManager:315 added change request:  iteration=-2147483648 newWeight=0.0 strategy=RandomPlanSelector_TimeAllocationMutator
2016-02-01 16:56:18,596  INFO GenericStrategyManager:347 setting PlanSelectorForRemoval to class org.matsim.core.replanning.selectors.WorstPlanForRemovalSelector
2016-02-01 16:56:18,700  INFO EventsManagerImpl:144 adding Event-Handler: org.matsim.core.scoring.EventsToScore
2016-02-01 16:56:18,700  INFO EventsManagerImpl:148   org.matsim.core.events.handler.BasicEventHandler
2016-02-01 16:56:18,700  INFO EventsManagerImpl:207     > org.matsim.api.core.v01.events.Event
2016-02-01 16:56:18,701  INFO EventsManagerImpl:156 
2016-02-01 16:56:18,701  INFO EventsManagerImpl:144 adding Event-Handler: org.matsim.core.scoring.EventsToScore
2016-02-01 16:56:18,701  INFO EventsManagerImpl:148   org.matsim.core.events.handler.BasicEventHandler
2016-02-01 16:56:18,701  INFO EventsManagerImpl:207     > org.matsim.api.core.v01.events.Event
2016-02-01 16:56:18,701  INFO EventsManagerImpl:156 
2016-02-01 16:56:18,702  INFO EventsManagerImpl:144 adding Event-Handler: org.matsim.analysis.LegHistogram
2016-02-01 16:56:18,702  INFO EventsManagerImpl:148   org.matsim.api.core.v01.events.handler.PersonDepartureEventHandler
2016-02-01 16:56:18,702  INFO EventsManagerImpl:207     > org.matsim.api.core.v01.events.PersonDepartureEvent
2016-02-01 16:56:18,702  INFO EventsManagerImpl:148   org.matsim.api.core.v01.events.handler.PersonArrivalEventHandler
2016-02-01 16:56:18,703  INFO EventsManagerImpl:207     > org.matsim.api.core.v01.events.PersonArrivalEvent
2016-02-01 16:56:18,703  INFO EventsManagerImpl:148   org.matsim.api.core.v01.events.handler.PersonStuckEventHandler
2016-02-01 16:56:18,703  INFO EventsManagerImpl:207     > org.matsim.api.core.v01.events.PersonStuckEvent
2016-02-01 16:56:18,703  INFO EventsManagerImpl:156 
2016-02-01 16:56:18,703  INFO EventsManagerImpl:144 adding Event-Handler: org.matsim.analysis.LegHistogram
2016-02-01 16:56:18,703  INFO EventsManagerImpl:148   org.matsim.api.core.v01.events.handler.PersonDepartureEventHandler
2016-02-01 16:56:18,704  INFO EventsManagerImpl:207     > org.matsim.api.core.v01.events.PersonDepartureEvent
2016-02-01 16:56:18,704  INFO EventsManagerImpl:148   org.matsim.api.core.v01.events.handler.PersonArrivalEventHandler
2016-02-01 16:56:18,704  INFO EventsManagerImpl:207     > org.matsim.api.core.v01.events.PersonArrivalEvent
2016-02-01 16:56:18,704  INFO EventsManagerImpl:148   org.matsim.api.core.v01.events.handler.PersonStuckEventHandler
2016-02-01 16:56:18,704  INFO EventsManagerImpl:207     > org.matsim.api.core.v01.events.PersonStuckEvent
2016-02-01 16:56:18,705  INFO EventsManagerImpl:156 
2016-02-01 16:56:18,705  INFO EventsManagerImpl:144 adding Event-Handler: org.matsim.analysis.CalcLegTimes
2016-02-01 16:56:18,705  INFO EventsManagerImpl:148   org.matsim.api.core.v01.events.handler.PersonDepartureEventHandler
2016-02-01 16:56:18,705  INFO EventsManagerImpl:207     > org.matsim.api.core.v01.events.PersonDepartureEvent
2016-02-01 16:56:18,706  INFO EventsManagerImpl:148   org.matsim.api.core.v01.events.handler.PersonArrivalEventHandler
2016-02-01 16:56:18,706  INFO EventsManagerImpl:207     > org.matsim.api.core.v01.events.PersonArrivalEvent
2016-02-01 16:56:18,706  INFO EventsManagerImpl:148   org.matsim.api.core.v01.events.handler.ActivityEndEventHandler
2016-02-01 16:56:18,706  INFO EventsManagerImpl:207     > org.matsim.api.core.v01.events.ActivityEndEvent
2016-02-01 16:56:18,706  INFO EventsManagerImpl:148   org.matsim.api.core.v01.events.handler.ActivityStartEventHandler
2016-02-01 16:56:18,707  INFO EventsManagerImpl:207     > org.matsim.api.core.v01.events.ActivityStartEvent
2016-02-01 16:56:18,707  INFO EventsManagerImpl:156 
2016-02-01 16:56:18,707  INFO EventsManagerImpl:144 adding Event-Handler: org.matsim.analysis.CalcLegTimes
2016-02-01 16:56:18,707  INFO EventsManagerImpl:148   org.matsim.api.core.v01.events.handler.PersonDepartureEventHandler
2016-02-01 16:56:18,707  INFO EventsManagerImpl:207     > org.matsim.api.core.v01.events.PersonDepartureEvent
2016-02-01 16:56:18,708  INFO EventsManagerImpl:148   org.matsim.api.core.v01.events.handler.PersonArrivalEventHandler
2016-02-01 16:56:18,708  INFO EventsManagerImpl:207     > org.matsim.api.core.v01.events.PersonArrivalEvent
2016-02-01 16:56:18,708  INFO EventsManagerImpl:148   org.matsim.api.core.v01.events.handler.ActivityEndEventHandler
2016-02-01 16:56:18,708  INFO EventsManagerImpl:207     > org.matsim.api.core.v01.events.ActivityEndEvent
2016-02-01 16:56:18,709  INFO EventsManagerImpl:148   org.matsim.api.core.v01.events.handler.ActivityStartEventHandler
2016-02-01 16:56:18,709  INFO EventsManagerImpl:207     > org.matsim.api.core.v01.events.ActivityStartEvent
2016-02-01 16:56:18,709  INFO EventsManagerImpl:156 
2016-02-01 16:56:19,292  INFO EventsManagerImpl:144 adding Event-Handler: org.matsim.core.scoring.EventsToScore
2016-02-01 16:56:19,292  INFO EventsManagerImpl:148   org.matsim.core.events.handler.BasicEventHandler
2016-02-01 16:56:19,292  INFO EventsManagerImpl:207     > org.matsim.api.core.v01.events.Event
2016-02-01 16:56:19,292  INFO EventsManagerImpl:156 
2016-02-01 16:56:19,293  INFO EventsManagerImpl:144 adding Event-Handler: org.matsim.core.scoring.EventsToScore
2016-02-01 16:56:19,293  INFO EventsManagerImpl:148   org.matsim.core.events.handler.BasicEventHandler
2016-02-01 16:56:19,293  INFO EventsManagerImpl:207     > org.matsim.api.core.v01.events.Event
2016-02-01 16:56:19,293  INFO EventsManagerImpl:156 
2016-02-01 16:56:19,299  INFO ControlerListenerManager:108 calling notifyStartup on org.matsim.counts.CountsControlerListener
2016-02-01 16:56:19,299  INFO ControlerListenerManager:108 calling notifyStartup on org.matsim.analysis.ScoreStatsControlerListener
2016-02-01 16:56:19,299  INFO ControlerListenerManager:111 all ControlerStartupListeners called.
2016-02-01 16:56:19,300  INFO ControlerUtils:57 config dump before iterations start
2016-02-01 16:56:19,308  INFO ControlerUtils:61 

<?xml version="1.0" encoding="UTF-8"?>
<!DOCTYPE config SYSTEM "http://www.matsim.org/files/dtd/config_v2.dtd">
<config>

<!-- ====================================================================== -->

	<module name="TimeAllocationMutator" >
		<param name="mutationAffectsDuration" value="true" />

		<!-- Default:1800.0; Defines how many seconds a time mutation can maximally shift a time. -->
		<param name="mutationRange" value="7200.0" />
	</module>

<!-- ====================================================================== -->

	<module name="changeLegMode" >
		<param name="ignoreCarAvailability" value="true" />
		<param name="modes" value="car,pt" />
	</module>

<!-- ====================================================================== -->

	<module name="controler" >

		<!-- Sets whether graphs showing some analyses should automatically be generated during the simulation. The generation of graphs usually takes a small amount of time that does not have any weight in big simulations, but add a significant overhead in smaller runs or in test cases where the graphical output is not even requested. -->
		<param name="createGraphs" value="true" />

		<!-- true if at the end of a run, plans, network, config etc should be dumped to a file -->
		<param name="dumpDataAtEnd" value="true" />

		<!-- Default=false;  -->
		<param name="enableLinkToLinkRouting" value="false" />

		<!-- Default=xml; Specifies the file format for writing events. Currently supported: txt, xml.
		Multiple values can be specified separated by commas (','). -->
		<param name="eventsFileFormat" value="xml" />

		<!-- Default=0;  -->
		<param name="firstIteration" value="0" />

		<!-- Default=1000;  -->
		<param name="lastIteration" value="20" />

		<!-- Defines which mobility simulation will be used. Currently supported: qsim JDEQSim 
		Depending on the chosen mobsim, you'll have to add additional config modules to configure the corresponding mobsim.
		For 'qsim', add a module 'qsim' to the config. -->
		<param name="mobsim" value="qsim" />

		<param name="outputDirectory" value="./output" />

		<!-- Possible values: failIfDirectoryExists, overwriteExistingFiles, deleteDirectoryIfExists -->
		<param name="overwriteFiles" value="failIfDirectoryExists" />

		<!-- The type of routing (least cost path) algorithm used, may have the values: Dijkstra, FastDijkstra, AStarLandmarks or FastAStarLandmarks -->
		<param name="routingAlgorithmType" value="Dijkstra" />

		<!-- An identifier for the current run which is used as prefix for output files and mentioned in output xml files etc. -->
		<param name="runId" value="null" />

		<!-- Comma-separated list of visualizer output file formats. `transims', `googleearth', and `otfvis'. -->
		<param name="snapshotFormat" value="" />

		<!-- iterationNumber % writeEventsInterval == 0 defines in which iterations events are written to a file. `0' disables events writing completely. -->
		<param name="writeEventsInterval" value="10" />

		<!-- iterationNumber % writePlansInterval == 0 defines (hopefully) in which iterations plans are written to a file. `0' disables plans writing completely.  Some plans in early iterations are always written -->
		<param name="writePlansInterval" value="1" />

		<!-- iterationNumber % writeSnapshotsInterval == 0 defines in which iterations snapshots are written to a file. `0' disables snapshots writing completely -->
		<param name="writeSnapshotsInterval" value="1" />
	</module>

<!-- ====================================================================== -->

	<module name="counts" >

		<!-- Transport modes that will be respected for the counts comparison. 'car' is default, which includes also bussed from the pt simulation module. Use this parameter in combination with 'filterModes' = true! -->
		<param name="analyzedModes" value="car" />

		<!-- Specifies over how many iterations the link volumes should be averaged that are used for the counts comparison. Use 1 or 0 to only use the link volumes of a single iteration. This values cannot be larger than the value specified for writeCountsInterval -->
		<param name="averageCountsOverIterations" value="5" />

		<!-- factor by which to re-scale the simulated values.  necessary when simulation runs with something different from 100%.  needs to be adapted manually -->
		<param name="countsScaleFactor" value="1.0" />

		<!-- distance to distanceFilterCenterNode to include counting stations. The unit of distance is the Euclidean distance implied by the coordinate system -->
		<param name="distanceFilter" value="null" />

		<!-- node id for center node of distance filter -->
		<param name="distanceFilterCenterNode" value="null" />

		<!-- If true, link counts from legs performed on modes not included in the 'analyzedModes' parameter are ignored. -->
		<param name="filterModes" value="false" />

		<!-- input file name to counts package -->
		<param name="inputCountsFile" value="null" />

		<!-- possible values: `html', `kml', `txt', `all' -->
		<param name="outputformat" value="txt" />

		<!-- Specifies how often the counts comparison should be calculated and written. -->
		<param name="writeCountsInterval" value="10" />
	</module>

<!-- ====================================================================== -->

	<module name="facilities" >
		<param name="inputFacilitiesFile" value="null" />
		<param name="inputFacilityAttributesFile" value="null" />
	</module>

<!-- ====================================================================== -->

	<module name="global" >
		<param name="coordinateSystem" value="EPSG:3115" />

		<!-- "global" number of threads.  This number is used, e.g., for replanning, but NOT in the mobsim.  This can typically be set to as many cores as you have available, or possibly even slightly more. -->
		<param name="numberOfThreads" value="8" />

		<param name="randomSeed" value="5399998864266990000" />
	</module>

<!-- ====================================================================== -->

	<module name="households" >
		<param name="inputFile" value="null" />
		<param name="inputHouseholdAttributesFile" value="null" />
	</module>

<!-- ====================================================================== -->

	<module name="linkStats" >

		<!-- Specifies over how many iterations the link volumes should be averaged that are used for the link statistics. Use 1 or 0 to only use the link volumes of a single iteration. This values cannot be larger than the value specified for writeLinkStatsInterval -->
		<param name="averageLinkStatsOverIterations" value="1" />

		<!-- Specifies how often the link stats should be calculated and written. Use 0 to disable the generation of link stats. -->
		<param name="writeLinkStatsInterval" value="1" />
	</module>

<!-- ====================================================================== -->

	<module name="network" >
		<param name="inputChangeEventsFile" value="null" />
		<param name="inputNetworkFile" value="./input/specialNetwork.xml" />
		<param name="laneDefinitionsFile" value="null" />
		<param name="timeVariantNetwork" value="false" />
	</module>

<!-- ====================================================================== -->

	<module name="parallelEventHandling" >

		<!-- Estimated number of events during mobsim run. An optional optimization hint for the framework. -->
		<param name="estimatedNumberOfEvents" value="null" />

		<!-- Number of threads for parallel events handler. 0 or null means the framework decides by itself. -->
		<param name="numberOfThreads" value="null" />

		<!-- If enabled, each event handler is assigned to its own thread. Note that enabling this feature disabled the numberOfThreads option! This feature is still experimental! -->
		<param name="oneThreadPerHandler" value="false" />

		<!-- If enabled, it is ensured that all events that are created during a time step of the mobility simulation are processed before the next time step is simulated. E.g. neccessary when within-day replanning is used. -->
		<param name="synchronizeOnSimSteps" value="true" />
	</module>

<!-- ====================================================================== -->

	<module name="planCalcScore" >

		<!-- logit model scale parameter. default: 1.  Has name and default value for historical reasons (see Bryan Raney's phd thesis). -->
		<param name="BrainExpBeta" value="2.0" />

		<param name="PathSizeLogitBeta" value="1.0" />

		<!-- fraction of iterations at which MSA score averaging is started. The matsim theory department suggests to use this together with switching off choice set innovation (where a similar switch exists), but it has not been tested yet. -->
		<param name="fractionOfIterationsToStartScoreMSA" value="null" />

		<!-- new_score = (1-learningRate)*old_score + learningRate * score_from_mobsim.  learning rates close to zero emulate score averaging, but slow down initial convergence -->
		<param name="learningRate" value="1.0" />

		<!-- There used to be a plateau between duration=0 and duration=zeroUtilityDuration. This caused durations to evolve to zero once they were below zeroUtilityDuration, causing problems.  Only use this switch if you need to be backwards compatible with some old results.  (changed nov'13) -->
		<param name="usingOldScoringBelowZeroUtilityDuration" value="false" />

		<!-- write a plans file in each iteration directory which contains what each agent actually did, and the score it received. -->
		<param name="writeExperiencedPlans" value="false" />

		<parameterset type="scoringParameters" >
			<param name="earlyDeparture" value="0.0" />
			<param name="lateArrival" value="0.0" />
			<param name="marginalUtilityOfMoney" value="1.0" />
			<param name="performing" value="6.0" />
			<param name="subpopulation" value="null" />
			<param name="utilityOfLineSwitch" value="-1.0" />
			<param name="waiting" value="0.0" />
			<param name="waitingPt" value="-6.0" />

			<parameterset type="activityParams" >
				<param name="activityType" value="dummy" />
				<param name="closingTime" value="undefined" />
				<param name="earliestEndTime" value="undefined" />
				<param name="latestStartTime" value="undefined" />
				<param name="minimalDuration" value="undefined" />
				<param name="openingTime" value="undefined" />
				<param name="priority" value="1.0" />
				<param name="scoringThisActivityAtAll" value="true" />
				<param name="typicalDuration" value="12:00:00" />

				<!-- method to compute score at typical duration.  Use uniform for backwards compatibility (all activities same score; higher proba to drop long acts). -->
				<param name="typicalDurationScoreComputation" value="uniform" />
			</parameterset>

			<parameterset type="activityParams" >
				<param name="activityType" value="pt interaction" />
				<param name="closingTime" value="00:00:00" />
				<param name="earliestEndTime" value="undefined" />
				<param name="latestStartTime" value="undefined" />
				<param name="minimalDuration" value="undefined" />
				<param name="openingTime" value="00:00:00" />
				<param name="priority" value="1.0" />
				<param name="scoringThisActivityAtAll" value="true" />
				<param name="typicalDuration" value="00:02:00" />

				<!-- method to compute score at typical duration.  Use uniform for backwards compatibility (all activities same score; higher proba to drop long acts). -->
				<param name="typicalDurationScoreComputation" value="uniform" />
			</parameterset>

			<parameterset type="modeParams" >

				<!-- [utils] alternative-specific constant.  no guarantee that this is used anywhere. default=0 to be backwards compatible for the time being -->
				<param name="constant" value="0.0" />

				<!-- [utils/m] utility of walking per m, normally negative.  this is on top of the time (dis)utility. -->
				<param name="marginalUtilityOfDistance_util_m" value="0.0" />

				<!-- [utils/hr] additional marginal utility of traveling.  normally negative.  this comes on top of the opportunity cost of time -->
				<param name="marginalUtilityOfTraveling_util_hr" value="0.0" />

				<param name="mode" value="car" />
				<param name="monetaryDistanceRate" value="0.0" />
			</parameterset>

			<parameterset type="modeParams" >

				<!-- [utils] alternative-specific constant.  no guarantee that this is used anywhere. default=0 to be backwards compatible for the time being -->
				<param name="constant" value="0.0" />

				<!-- [utils/m] utility of walking per m, normally negative.  this is on top of the time (dis)utility. -->
				<param name="marginalUtilityOfDistance_util_m" value="0.0" />

				<!-- [utils/hr] additional marginal utility of traveling.  normally negative.  this comes on top of the opportunity cost of time -->
				<param name="marginalUtilityOfTraveling_util_hr" value="-6.0" />

				<param name="mode" value="pt" />
				<param name="monetaryDistanceRate" value="0.0" />
			</parameterset>

			<parameterset type="modeParams" >

				<!-- [utils] alternative-specific constant.  no guarantee that this is used anywhere. default=0 to be backwards compatible for the time being -->
				<param name="constant" value="0.0" />

				<!-- [utils/m] utility of walking per m, normally negative.  this is on top of the time (dis)utility. -->
				<param name="marginalUtilityOfDistance_util_m" value="0.0" />

				<!-- [utils/hr] additional marginal utility of traveling.  normally negative.  this comes on top of the opportunity cost of time -->
				<param name="marginalUtilityOfTraveling_util_hr" value="-6.0" />

				<param name="mode" value="walk" />
				<param name="monetaryDistanceRate" value="0.0" />
			</parameterset>

			<parameterset type="modeParams" >

				<!-- [utils] alternative-specific constant.  no guarantee that this is used anywhere. default=0 to be backwards compatible for the time being -->
				<param name="constant" value="0.0" />

				<!-- [utils/m] utility of walking per m, normally negative.  this is on top of the time (dis)utility. -->
				<param name="marginalUtilityOfDistance_util_m" value="0.0" />

				<!-- [utils/hr] additional marginal utility of traveling.  normally negative.  this comes on top of the opportunity cost of time -->
				<param name="marginalUtilityOfTraveling_util_hr" value="-6.0" />

				<param name="mode" value="bike" />
				<param name="monetaryDistanceRate" value="0.0" />
			</parameterset>

			<parameterset type="modeParams" >

				<!-- [utils] alternative-specific constant.  no guarantee that this is used anywhere. default=0 to be backwards compatible for the time being -->
				<param name="constant" value="0.0" />

				<!-- [utils/m] utility of walking per m, normally negative.  this is on top of the time (dis)utility. -->
				<param name="marginalUtilityOfDistance_util_m" value="0.0" />

				<!-- [utils/hr] additional marginal utility of traveling.  normally negative.  this comes on top of the opportunity cost of time -->
				<param name="marginalUtilityOfTraveling_util_hr" value="-6.0" />

				<param name="mode" value="other" />
				<param name="monetaryDistanceRate" value="0.0" />
			</parameterset>
		</parameterset>
	</module>

<!-- ====================================================================== -->

	<module name="plans" >

		<!-- String: minOfDurationAndEndTime tryEndTimeThenDuration endTimeOnly. Anything besides minOfDurationAndEndTime will internally use a different (simpler) version of the TimeAllocationMutator. -->
		<param name="activityDurationInterpretation" value="tryEndTimeThenDuration" />

		<!-- Path to a file containing person attributes (required file format: ObjectAttributes). -->
		<param name="inputPersonAttributesFile" value="null" />

		<param name="inputPlansFile" value="./input/plans_sitm_cali_01.04.2014_40porc_final_dummy.xml" />

		<!-- Defines how routes are stored in memory. Currently supported: LinkNetworkRoute, CompressedNetworkRoute. -->
		<param name="networkRouteType" value="LinkNetworkRoute" />

		<!-- (not tested) will remove plan attributes that are presumably not used, such as activityStartTime. default=false -->
		<param name="removingUnnecessaryPlanAttributes" value="false" />

		<!-- Name of the (Object)Attribute defining the subpopulation to which pertains a Person (as freight, through traffic, etc.). The attribute must be of String type. -->
		<param name="subpopulationAttributeName" value="subpopulation" />
	</module>

<!-- ====================================================================== -->

	<module name="planscalcroute" >

		<!-- All the modes for which the router is supposed to generate network routes (like car) -->
		<param name="networkModes" value="car" />

		<parameterset type="teleportedModeParameters" >
			<param name="beelineDistanceFactor" value="1.3" />
			<param name="mode" value="bike" />

			<!-- Free-speed factor for a teleported mode. Travel time = teleportedModeFreespeedFactor * <freespeed car travel time>. Insert a line like this for every such mode. Please do not set teleportedModeFreespeedFactor as well as teleportedModeSpeed for the same mode, but if you do, +teleportedModeFreespeedFactor wins over teleportedModeSpeed. -->
			<param name="teleportedModeFreespeedFactor" value="null" />

			<!-- Speed for a teleported mode. Travel time = (<beeline distance> * beelineDistanceFactor) / teleportedModeSpeed. Insert a line like this for every such mode. -->
			<param name="teleportedModeSpeed" value="4.166666666666667" />
		</parameterset>

		<parameterset type="teleportedModeParameters" >
			<param name="beelineDistanceFactor" value="1.3" />
			<param name="mode" value="walk" />

			<!-- Free-speed factor for a teleported mode. Travel time = teleportedModeFreespeedFactor * <freespeed car travel time>. Insert a line like this for every such mode. Please do not set teleportedModeFreespeedFactor as well as teleportedModeSpeed for the same mode, but if you do, +teleportedModeFreespeedFactor wins over teleportedModeSpeed. -->
			<param name="teleportedModeFreespeedFactor" value="null" />

			<!-- Speed for a teleported mode. Travel time = (<beeline distance> * beelineDistanceFactor) / teleportedModeSpeed. Insert a line like this for every such mode. -->
			<param name="teleportedModeSpeed" value="0.8333333333333333" />
		</parameterset>

		<parameterset type="teleportedModeParameters" >
			<param name="beelineDistanceFactor" value="1.3" />
			<param name="mode" value="undefined" />

			<!-- Free-speed factor for a teleported mode. Travel time = teleportedModeFreespeedFactor * <freespeed car travel time>. Insert a line like this for every such mode. Please do not set teleportedModeFreespeedFactor as well as teleportedModeSpeed for the same mode, but if you do, +teleportedModeFreespeedFactor wins over teleportedModeSpeed. -->
			<param name="teleportedModeFreespeedFactor" value="null" />

			<!-- Speed for a teleported mode. Travel time = (<beeline distance> * beelineDistanceFactor) / teleportedModeSpeed. Insert a line like this for every such mode. -->
			<param name="teleportedModeSpeed" value="13.88888888888889" />
		</parameterset>

		<parameterset type="teleportedModeParameters" >
			<param name="beelineDistanceFactor" value="1.3" />
			<param name="mode" value="ride" />

			<!-- Free-speed factor for a teleported mode. Travel time = teleportedModeFreespeedFactor * <freespeed car travel time>. Insert a line like this for every such mode. Please do not set teleportedModeFreespeedFactor as well as teleportedModeSpeed for the same mode, but if you do, +teleportedModeFreespeedFactor wins over teleportedModeSpeed. -->
			<param name="teleportedModeFreespeedFactor" value="1.0" />

			<!-- Speed for a teleported mode. Travel time = (<beeline distance> * beelineDistanceFactor) / teleportedModeSpeed. Insert a line like this for every such mode. -->
			<param name="teleportedModeSpeed" value="null" />
		</parameterset>

		<parameterset type="teleportedModeParameters" >
			<param name="beelineDistanceFactor" value="1.3" />
			<param name="mode" value="pt" />

			<!-- Free-speed factor for a teleported mode. Travel time = teleportedModeFreespeedFactor * <freespeed car travel time>. Insert a line like this for every such mode. Please do not set teleportedModeFreespeedFactor as well as teleportedModeSpeed for the same mode, but if you do, +teleportedModeFreespeedFactor wins over teleportedModeSpeed. -->
			<param name="teleportedModeFreespeedFactor" value="2.0" />

			<!-- Speed for a teleported mode. Travel time = (<beeline distance> * beelineDistanceFactor) / teleportedModeSpeed. Insert a line like this for every such mode. -->
			<param name="teleportedModeSpeed" value="null" />
		</parameterset>
	</module>

<!-- ====================================================================== -->

	<module name="ptCounts" >

		<!-- factor by which to re-scale the simulated values.  necessary when simulation runs with something different from 100%.  needs to be adapted manually -->
		<param name="countsScaleFactor" value="1.0" />

		<!-- distance to distanceFilterCenterNode to include counting stations. The unit of distance is the Euclidean distance implied by the coordinate system -->
		<param name="distanceFilter" value="null" />

		<!-- node id for center node of distance filter -->
		<param name="distanceFilterCenterNode" value="null" />

		<!-- input file containing the alighting (getting off) counts for pt -->
		<param name="inputAlightCountsFile" value="null" />

		<!-- input file containing the boarding (getting on) counts for pt -->
		<param name="inputBoardCountsFile" value="null" />

		<!-- input file containing the occupancy counts for pt -->
		<param name="inputOccupancyCountsFile" value="null" />

		<!-- possible values: `html', `kml', `txt', `all' -->
		<param name="outputformat" value="null" />

		<!-- every how many iterations (starting with 0) counts comparisons are generated -->
		<param name="ptCountsInterval" value="10" />
	</module>

<!-- ====================================================================== -->

	<module name="qsim" >
		<param name="endTime" value="28:00:00" />
		<param name="flowCapacityFactor" value="1.0" />

		<!-- decides if waiting vehicles enter the network after or before the already driving vehicles were moved. Default: false -->
		<param name="insertingWaitingVehiclesBeforeDrivingVehicles" value="false" />

		<!-- If link dynamics is set as SeepageQ, set to false if all seep modes should perform seepage. Default is true (better option). -->
		<param name="isRestrictingSeepage" value="true" />

		<!-- If link dynamics is set as SeepageQ, set to true if seep mode do not consumes any space on the link. Default is false. -->
		<param name="isSeepModeStorageFree" value="false" />

		<!-- default: FIFO; options: FIFO PassingQ SeepageQ -->
		<param name="linkDynamics" value="PassingQ" />

		<!-- The (initial) width of the links of the network. Use positive floating point values. -->
		<param name="linkWidth" value="30.0" />

		<!-- [comma-separated list] Defines which modes are congested modes. Technically, these are the modes that the departure handler of the netsimengine handles.  Effective cell size, effective lane width, flow capacity factor, and storage capacity factor need to be set with diligence.  Need to be vehicular modes to make sense. -->
		<param name="mainMode" value="car" />

		<!-- Shortens a link in the visualization, i.e. its start and end point are moved into towards the center. Does not affect traffic flow.  -->
		<param name="nodeOffset" value="0.0" />

		<!-- Number of threads used for the QSim.  Note that this setting is independent from the "global" threads setting.  In contrast to earlier versions, the non-parallel special version is no longer there. -->
		<param name="numberOfThreads" value="1" />

		<!-- Boolean. `true': stuck vehicles are removed, aborting the plan; `false': stuck vehicles are forced into the next link. `false' is probably the better choice. -->
		<param name="removeStuckVehicles" value="false" />

		<!-- If link dynamics is set as SeepageQ, set a seep mode. Default is bike. -->
		<param name="seepMode" value="bike" />

		<!-- Options: nullmaxOfStarttimeAndEarliestActivityEnd onlyUseStarttime  -->
		<param name="simStarttimeInterpretation" value="maxOfStarttimeAndEarliestActivityEnd" />

		<!-- snapshotStyle. One of: equiDist queue withHoles  -->
		<param name="snapshotStyle" value="equiDist" />

		<param name="snapshotperiod" value="00:00:00" />
		<param name="startTime" value="00:00:00" />
		<param name="storageCapacityFactor" value="1.0" />

		<!-- time in seconds.  Time after which the frontmost vehicle on a link is called `stuck' if it does not move. -->
		<param name="stuckTime" value="10.0" />

		<param name="timeStepSize" value="00:00:01" />

		<!-- options: nullqueue withHoles  -->
		<param name="trafficDynamics" value="queue" />

		<!-- [DEPRECATED, usevehiclesSource instead]  If this is true, we do not expect (or use) vehicles from the vehicles database, but create vehicles on the fly with default properties. -->
		<param name="useDefaultVehicles" value="true" />

		<!-- Set this parameter to true if lanes should be used, false if not. -->
		<param name="useLanes" value="false" />

		<!-- If a route does not reference a vehicle, agents will use the vehicle with the same id as their own. -->
		<param name="usePersonIdForMissingVehicleId" value="true" />

		<!-- normally, the qsim accumulates fractional flows up to one flow unit.  This is impractical with  with smaller PCEs.  If this switch is set to true, cars can enter a link if the accumulated flow is >=0, and the accumulated flow can go into negative.  Will probably become the default eventually. -->
		<param name="usingFastCapacityUpdate" value="false" />

		<!-- if the qsim should use as many runners as there are threads (Christoph's dissertation version) or more of them, together with a thread pool (seems to be faster in some situations, but is not tested). -->
		<param name="usingThreadpool" value="true" />

		<!-- Defines what happens if an agent wants to depart, but the specified vehicle is not available. One of: nullteleport wait exception  -->
		<param name="vehicleBehavior" value="wait" />

		<!-- If vehicles should all be the same default vehicle, or come from the vehicles file, or something else.  Possible values:  defaultVehicle fromVehiclesData -->
		<param name="vehiclesSource" value="defaultVehicle" />
	</module>

<!-- ====================================================================== -->

	<module name="scenario" >
	</module>

<!-- ====================================================================== -->

	<module name="strategy" >

		<!-- the external executable will be called with a config file as argument.  This is the pathname to a possible skeleton config, to which additional information will be added.  Can be null. -->
		<param name="ExternalExeConfigTemplate" value="null" />

		<!-- time out value (in seconds) after which matsim will consider the external strategy as failed -->
		<param name="ExternalExeTimeOut" value="3600" />

		<!-- root directory for temporary files generated by the external executable. Provided as a service; I don't think this is used by MATSim. -->
		<param name="ExternalExeTmpFileRootDir" value="null" />

		<!-- fraction of iterations where innovative strategies are switched off.  Something link 0.8 should be good.  E.g. if you run from iteration 400 to iteration 500, innovation is switched off at iteration 480 -->
		<param name="fractionOfIterationsToDisableInnovation" value="Infinity" />

		<!-- maximum number of plans per agent.  ``0'' means ``infinity''.  Currently (2010), ``5'' is a good number -->
		<param name="maxAgentPlanMemorySize" value="5" />

		<!-- name of PlanSelector for plans removal.  Possible defaults: WorstPlanSelector SelectRandom SelectExpBetaForRemoval ChangeExpBetaForRemoval PathSizeLogitSelectorForRemoval . The current default, WorstPlanSelector is not a good choice from a discrete choice theoretical perspective. Alternatives, however, have not been systematically tested. kai, feb'12 -->
		<param name="planSelectorForRemoval" value="WorstPlanSelector" />

		<parameterset type="strategysettings" >

			<!-- iteration after which strategy will be disabled.  most useful for ``innovative'' strategies (new routes, new times, ...). Normally, better use fractionOfIterationsToDisableInnovation -->
			<param name="disableAfterIteration" value="-1" />

			<!-- path to external executable (if applicable) -->
			<param name="executionPath" value="null" />

			<!-- name of strategy.  Possible default names: KeepLastSelected BestScore ChangeExpBeta SelectExpBeta SelectRandom SelectPathSizeLogit  (selectors), ReRoute TimeAllocationMutator ChangeLegMode TimeAllocationMutator_ReRoute ChangeSingleLegMode ChangeSingleTripMode SubtourModeChoice ChangeTripMode TripSubtourModeChoice  (innovative strategies). -->
			<param name="strategyName" value="ChangeExpBeta" />

			<!-- subpopulation to which the strategy applies. "null" refers to the default population, that is, the set of persons for which no explicit subpopulation is defined (ie no subpopulation attribute) -->
			<param name="subpopulation" value="null" />

			<!-- weight of a strategy: for each agent, a strategy will be selected with a probability proportional to its weight -->
			<param name="weight" value="0.8" />
		</parameterset>

		<parameterset type="strategysettings" >

			<!-- iteration after which strategy will be disabled.  most useful for ``innovative'' strategies (new routes, new times, ...). Normally, better use fractionOfIterationsToDisableInnovation -->
			<param name="disableAfterIteration" value="-1" />

			<!-- path to external executable (if applicable) -->
			<param name="executionPath" value="null" />

			<!-- name of strategy.  Possible default names: KeepLastSelected BestScore ChangeExpBeta SelectExpBeta SelectRandom SelectPathSizeLogit  (selectors), ReRoute TimeAllocationMutator ChangeLegMode TimeAllocationMutator_ReRoute ChangeSingleLegMode ChangeSingleTripMode SubtourModeChoice ChangeTripMode TripSubtourModeChoice  (innovative strategies). -->
			<param name="strategyName" value="ReRoute" />

			<!-- subpopulation to which the strategy applies. "null" refers to the default population, that is, the set of persons for which no explicit subpopulation is defined (ie no subpopulation attribute) -->
			<param name="subpopulation" value="null" />

			<!-- weight of a strategy: for each agent, a strategy will be selected with a probability proportional to its weight -->
			<param name="weight" value="0.1" />
		</parameterset>

		<parameterset type="strategysettings" >

			<!-- iteration after which strategy will be disabled.  most useful for ``innovative'' strategies (new routes, new times, ...). Normally, better use fractionOfIterationsToDisableInnovation -->
			<param name="disableAfterIteration" value="-1" />

			<!-- path to external executable (if applicable) -->
			<param name="executionPath" value="null" />

			<!-- name of strategy.  Possible default names: KeepLastSelected BestScore ChangeExpBeta SelectExpBeta SelectRandom SelectPathSizeLogit  (selectors), ReRoute TimeAllocationMutator ChangeLegMode TimeAllocationMutator_ReRoute ChangeSingleLegMode ChangeSingleTripMode SubtourModeChoice ChangeTripMode TripSubtourModeChoice  (innovative strategies). -->
			<param name="strategyName" value="TimeAllocationMutator" />

			<!-- subpopulation to which the strategy applies. "null" refers to the default population, that is, the set of persons for which no explicit subpopulation is defined (ie no subpopulation attribute) -->
			<param name="subpopulation" value="null" />

			<!-- weight of a strategy: for each agent, a strategy will be selected with a probability proportional to its weight -->
			<param name="weight" value="0.1" />
		</parameterset>
	</module>

<!-- ====================================================================== -->

	<module name="subtourModeChoice" >

		<!-- Defines the chain-based modes, seperated by commas -->
		<param name="chainBasedModes" value="car,bike" />

		<!-- Defines whether car availability must be considered or not. A agent has no car only if it has no license, or never access to a car -->
		<param name="considerCarAvailability" value="false" />

		<!-- Defines all the modes available, including chain-based modes, seperated by commas -->
		<param name="modes" value="car,pt,bike,walk" />
	</module>

<!-- ====================================================================== -->

	<module name="transit" >

		<!-- Optional input file containing additional attributes for transit lines, stored as ObjectAttributes. -->
		<param name="transitLinesAttributesFile" value="null" />

		<!-- Comma-separated list of transportation modes that are handled as transit. Defaults to 'pt'. -->
		<param name="transitModes" value="pt" />

		<!-- Input file containing the transit schedule to be simulated. -->
		<param name="transitScheduleFile" value="./input/transitSchedule_MAX_VEHICLES.xml" />

		<!-- Optional input file containing additional attributes for transit stop facilities, stored as ObjectAttributes. -->
		<param name="transitStopsAttributesFile" value="null" />

		<!-- Set this parameter to true if transit should be simulated, false if not. -->
		<param name="useTransit" value="true" />

		<!-- Input file containing the vehicles used by the departures in the transit schedule. -->
		<param name="vehiclesFile" value="./input/transitVehicles_MAX_VEHICLES.xml" />
	</module>

<!-- ====================================================================== -->

	<module name="transitRouter" >

		<!-- additional time the router allocates when a line switch happens. Can be interpreted as a 'safety' time that agents need to safely transfer from one line to another -->
		<param name="additionalTransferTime" value="0.0" />

		<!-- step size to increase searchRadius if no stops are found -->
		<param name="extensionRadius" value="200.0" />

		<!-- maximum beeline distance between stops that agents could transfer to by walking -->
		<param name="maxBeelineWalkConnectionDistance" value="100.0" />

		<!-- the radius in which stop locations are searched, given a start or target coordinate -->
		<param name="searchRadius" value="500.0" />
	</module>

<!-- ====================================================================== -->

	<module name="travelTimeCalculator" >

		<!-- Transport modes that will be respected by the travel time collector. 'car' is default, which includes also bussed from the pt simulation module. Use this parameter in combination with 'filterModes' = true! -->
		<param name="analyzedModes" value="car" />

		<param name="calculateLinkToLinkTravelTimes" value="false" />
		<param name="calculateLinkTravelTimes" value="true" />

		<!-- If true, link travel times from legs performed on modes not included in the 'analyzedModes' parameter are ignored. -->
		<param name="filterModes" value="false" />

		<!-- How to deal with congested time bins that have no link entry events. `optimistic' assumes free speed (too optimistic); 'experimental_LastMile' is experimental and probably too pessimistic. -->
		<param name="travelTimeAggregator" value="optimistic" />

		<!-- The size of the time bin (in sec) into which the link travel times are aggregated for the router -->
		<param name="travelTimeBinSize" value="900" />

		<!-- possible values: nullTravelTimeCalculatorArray TravelTimeCalculatorHashMap  -->
		<param name="travelTimeCalculator" value="TravelTimeCalculatorArray" />

		<!-- How to deal with link entry times at different positions during the time bin. Currently supported: average, linearinterpolation -->
		<param name="travelTimeGetter" value="average" />
	</module>

<!-- ====================================================================== -->

	<module name="vehicles" >
		<param name="vehiclesFile" value="null" />
	</module>

<!-- ====================================================================== -->

	<module name="vspExperimental" >

		<!-- (do not use) Set this filename of MZ05 daily analysis -->
		<param name="inputMZ05File" value="" />

		<!-- (do not use except of you have to) There was a problem with pt interaction scoring.  Some people solved it by overwriting the parameters of the pt interaction activity type.  Doing this now throws an Exception.  If you still insist on doing this, set the following to true. -->
		<param name="isAbleToOverwritePtInteractionParams" value="false" />

		<param name="isGeneratingBoardingDeniedEvent" value="false" />

		<!-- if an approximation of the opportunity cost of time is included into the radius calculation for location choice.`true' will be faster, but it is an approximation.  Default is `true'; `false' is available for backwards compatibility. -->
		<param name="isUsingOpportunityCostOfTimeForLocationChoice" value="true" />

		<param name="logitScaleParamForPlansRemoval" value="1.0" />

		<!-- Options: | ignore | info | warn | abort | .  When violating VSP defaults, this results in nothing, logfile infos, logfile warnings, or aborts.  Members of VSP should use `abort' or talk to kai. -->
		<param name="vspDefaultsCheckingLevel" value="ignore" />

		<!-- if true then writes output_events in output directory.  default is `false'. Will only work when lastIteration is multiple of events writing interval -->
		<param name="writingOutputEvents" value="false" />
	</module>

<!-- ====================================================================== -->

</config>

2016-02-01 16:56:19,310  INFO ControlerUtils:62 Complete config dump done.
2016-02-01 16:56:19,310  INFO ControlerUtils:63 Checking consistency of config...
2016-02-01 16:56:19,310  INFO VspConfigConsistencyCheckerImpl:56 NOT running vsp config consistency check because vsp defaults checking level is set to IGNORE
2016-02-01 16:56:19,310  INFO ControlerUtils:65 Checking consistency of config done.
2016-02-01 16:56:19,320  INFO TransitRouterNetwork:366 start creating transit network
2016-02-01 16:56:19,321  INFO Counter:51  node #1
2016-02-01 16:56:19,321  INFO Counter:51  node #2
2016-02-01 16:56:19,322  INFO Counter:51  link #1
2016-02-01 16:56:19,322  INFO Counter:51  link #2
2016-02-01 16:56:19,323  INFO Counter:51  node #4
2016-02-01 16:56:19,323  INFO Counter:51  link #4
2016-02-01 16:56:19,323  INFO Counter:51  node #8
2016-02-01 16:56:19,323  INFO Counter:51  link #8
[...]
2016-02-01 17:01:08,617  INFO MobsimListenerManager:53   assigned class org.matsim.core.mobsim.framework.listeners.MobsimListener to interface org.matsim.core.mobsim.framework.listeners.MobsimBeforeSimStepListener
2016-02-01 17:01:08,617  INFO MobsimListenerManager:53   assigned class org.matsim.core.mobsim.framework.listeners.MobsimListener to interface org.matsim.core.mobsim.framework.listeners.MobsimListener
2016-02-01 17:01:08,617  INFO MobsimListenerManager:49 calling addQueueSimulationListener
2016-02-01 17:01:08,617  INFO MobsimListenerManager:53   assigned class org.matsim.core.mobsim.framework.listeners.MobsimListener to interface org.matsim.core.mobsim.framework.listeners.MobsimInitializedListener
2016-02-01 17:01:08,617  INFO MobsimListenerManager:53   assigned class org.matsim.core.mobsim.framework.listeners.MobsimListener to interface org.matsim.core.mobsim.framework.listeners.MobsimAfterSimStepListener
2016-02-01 17:01:08,617  INFO MobsimListenerManager:53   assigned class org.matsim.core.mobsim.framework.listeners.MobsimListener to interface org.matsim.core.mobsim.framework.listeners.MobsimListener
2016-02-01 17:01:08,617  INFO MobsimListenerManager:53   assigned class org.matsim.core.mobsim.framework.listeners.MobsimListener to interface org.matsim.vis.snapshotwriters.SnapshotWriterManager
2016-02-01 17:01:08,617  INFO MobsimListenerManager:53   assigned class org.matsim.core.mobsim.framework.listeners.MobsimListener to interface org.matsim.core.mobsim.framework.listeners.MobsimBeforeCleanupListener
2016-02-01 17:01:08,618  INFO ReconstructingUmlaufBuilder:112 Generating UmlaufStuecke
2016-02-01 17:01:08,745  INFO QNetsimEngine:562 Assigned 2018 nodes and 2659 links to QSimEngineRunner #0
2016-02-01 17:01:08,769  INFO QNetsimEngine:388 SIMULATION (QNetsimEngine) AT 01:23:15 : #links=0 #nodes=0
2016-02-01 17:01:08,769  INFO QSim:462 SIMULATION (NEW QSim) AT 01:23:15 : #Veh=43826 lost=0 simT=0.0s realT=0s; (s/r): 0.0
2016-02-01 17:01:08,769  INFO Gbl:52 used RAM: 494371688B = 482784kB = 471MB  free: 1054899352B = 1006MB  total: 1549271040B = 1477MB
2016-02-01 17:01:08,821  INFO QNetsimEngine:388 SIMULATION (QNetsimEngine) AT 02:00:00 : #links=0 #nodes=0
2016-02-01 17:01:08,821  INFO QSim:462 SIMULATION (NEW QSim) AT 02:00:00 : #Veh=43826 lost=0 simT=2205.0s realT=0s; (s/r): Infinity
2016-02-01 17:01:08,821  INFO Gbl:52 used RAM: 494371688B = 482784kB = 471MB  free: 1054899352B = 1006MB  total: 1549271040B = 1477MB
2016-02-01 17:01:08,921  INFO QNetsimEngine:388 SIMULATION (QNetsimEngine) AT 03:00:00 : #links=0 #nodes=0
2016-02-01 17:01:08,921  INFO QSim:462 SIMULATION (NEW QSim) AT 03:00:00 : #Veh=43826 lost=0 simT=5805.0s realT=0s; (s/r): Infinity
2016-02-01 17:01:08,921  INFO Gbl:52 used RAM: 500524408B = 488793kB = 477MB  free: 1048746632B = 1000MB  total: 1549271040B = 1477MB
2016-02-01 17:01:09,021  INFO QNetsimEngine:388 SIMULATION (QNetsimEngine) AT 04:00:00 : #links=0 #nodes=0
2016-02-01 17:01:09,021  INFO QSim:462 SIMULATION (NEW QSim) AT 04:00:00 : #Veh=43826 lost=0 simT=9405.0s realT=0s; (s/r): Infinity
2016-02-01 17:01:09,021  INFO Gbl:52 used RAM: 500524408B = 488793kB = 477MB  free: 1048746632B = 1000MB  total: 1549271040B = 1477MB
2016-02-01 17:01:09,146  INFO QNetsimEngine:388 SIMULATION (QNetsimEngine) AT 05:00:00 : #links=3 #nodes=0
2016-02-01 17:01:09,146  INFO QSim:462 SIMULATION (NEW QSim) AT 05:00:00 : #Veh=43823 lost=0 simT=13005.0s realT=0s; (s/r): Infinity
2016-02-01 17:01:09,146  INFO Gbl:52 used RAM: 504398968B = 492577kB = 481MB  free: 1044872072B = 996MB  total: 1549271040B = 1477MB
2016-02-01 17:01:09,534  INFO QNetsimEngine:388 SIMULATION (QNetsimEngine) AT 06:00:00 : #links=23 #nodes=2
2016-02-01 17:01:09,534  INFO QSim:462 SIMULATION (NEW QSim) AT 06:00:00 : #Veh=43774 lost=0 simT=16605.0s realT=0s; (s/r): Infinity
2016-02-01 17:01:09,534  INFO Gbl:52 used RAM: 555109192B = 542098kB = 529MB  free: 994161848B = 948MB  total: 1549271040B = 1477MB
2016-02-01 17:01:10,172  INFO QNetsimEngine:388 SIMULATION (QNetsimEngine) AT 07:00:00 : #links=33 #nodes=3
2016-02-01 17:01:10,172  INFO QSim:462 SIMULATION (NEW QSim) AT 07:00:00 : #Veh=43652 lost=0 simT=20205.0s realT=1s; (s/r): 20205.0
2016-02-01 17:01:10,172  INFO Gbl:52 used RAM: 648780688B = 633574kB = 618MB  free: 900490352B = 858MB  total: 1549271040B = 1477MB
2016-02-01 17:01:10,826  INFO QNetsimEngine:388 SIMULATION (QNetsimEngine) AT 08:00:00 : #links=34 #nodes=5
2016-02-01 17:01:10,826  INFO QSim:462 SIMULATION (NEW QSim) AT 08:00:00 : #Veh=43411 lost=0 simT=23805.0s realT=2s; (s/r): 11902.5
2016-02-01 17:01:10,826  INFO Gbl:52 used RAM: 745985792B = 728501kB = 711MB  free: 803285248B = 766MB  total: 1549271040B = 1477MB
2016-02-01 17:01:11,396  INFO QNetsimEngine:388 SIMULATION (QNetsimEngine) AT 09:00:00 : #links=22 #nodes=0
2016-02-01 17:01:11,396  INFO QSim:462 SIMULATION (NEW QSim) AT 09:00:00 : #Veh=43006 lost=0 simT=27405.0s realT=2s; (s/r): 13702.5
2016-02-01 17:01:11,396  INFO Gbl:52 used RAM: 500332032B = 488605kB = 477MB  free: 947751424B = 903MB  total: 1448083456B = 1381MB
2016-02-01 17:01:11,867  INFO QNetsimEngine:388 SIMULATION (QNetsimEngine) AT 10:00:00 : #links=21 #nodes=1
2016-02-01 17:01:11,867  INFO QSim:462 SIMULATION (NEW QSim) AT 10:00:00 : #Veh=42299 lost=0 simT=31005.0s realT=3s; (s/r): 10335.0
2016-02-01 17:01:11,867  INFO Gbl:52 used RAM: 569060088B = 555722kB = 542MB  free: 879023368B = 838MB  total: 1448083456B = 1381MB
2016-02-01 17:01:12,331  INFO QNetsimEngine:388 SIMULATION (QNetsimEngine) AT 11:00:00 : #links=21 #nodes=2
2016-02-01 17:01:12,331  INFO QSim:462 SIMULATION (NEW QSim) AT 11:00:00 : #Veh=40995 lost=0 simT=34605.0s realT=3s; (s/r): 11535.0
2016-02-01 17:01:12,331  INFO Gbl:52 used RAM: 637285328B = 622348kB = 607MB  free: 810798128B = 773MB  total: 1448083456B = 1381MB
2016-02-01 17:01:12,807  INFO QNetsimEngine:388 SIMULATION (QNetsimEngine) AT 12:00:00 : #links=20 #nodes=2
2016-02-01 17:01:12,807  INFO QSim:462 SIMULATION (NEW QSim) AT 12:00:00 : #Veh=39201 lost=0 simT=38205.0s realT=4s; (s/r): 9551.25
2016-02-01 17:01:12,807  INFO Gbl:52 used RAM: 710744816B = 694086kB = 677MB  free: 737338640B = 703MB  total: 1448083456B = 1381MB
2016-02-01 17:01:13,303  INFO QNetsimEngine:388 SIMULATION (QNetsimEngine) AT 13:00:00 : #links=19 #nodes=0
2016-02-01 17:01:13,303  INFO QSim:462 SIMULATION (NEW QSim) AT 13:00:00 : #Veh=36919 lost=0 simT=41805.0s realT=4s; (s/r): 10451.25
2016-02-01 17:01:13,303  INFO Gbl:52 used RAM: 782343544B = 764007kB = 746MB  free: 665739912B = 634MB  total: 1448083456B = 1381MB
2016-02-01 17:01:13,802  INFO QNetsimEngine:388 SIMULATION (QNetsimEngine) AT 14:00:00 : #links=19 #nodes=0
2016-02-01 17:01:13,802  INFO QSim:462 SIMULATION (NEW QSim) AT 14:00:00 : #Veh=34703 lost=0 simT=45405.0s realT=5s; (s/r): 9081.0
2016-02-01 17:01:13,802  INFO Gbl:52 used RAM: 858673688B = 838548kB = 818MB  free: 589409768B = 562MB  total: 1448083456B = 1381MB
2016-02-01 17:01:14,356  INFO QNetsimEngine:388 SIMULATION (QNetsimEngine) AT 15:00:00 : #links=18 #nodes=2
2016-02-01 17:01:14,356  INFO QSim:462 SIMULATION (NEW QSim) AT 15:00:00 : #Veh=32345 lost=0 simT=49005.0s realT=5s; (s/r): 9801.0
2016-02-01 17:01:14,356  INFO Gbl:52 used RAM: 583738672B = 570057kB = 556MB  free: 966056656B = 921MB  total: 1549795328B = 1478MB
2016-02-01 17:01:14,843  INFO QNetsimEngine:388 SIMULATION (QNetsimEngine) AT 16:00:00 : #links=18 #nodes=1
2016-02-01 17:01:14,843  INFO QSim:462 SIMULATION (NEW QSim) AT 16:00:00 : #Veh=29673 lost=0 simT=52605.0s realT=6s; (s/r): 8767.5
2016-02-01 17:01:14,843  INFO Gbl:52 used RAM: 652306024B = 637017kB = 622MB  free: 897489304B = 855MB  total: 1549795328B = 1478MB
2016-02-01 17:01:15,423  INFO QNetsimEngine:388 SIMULATION (QNetsimEngine) AT 17:00:00 : #links=28 #nodes=4
2016-02-01 17:01:15,423  INFO QSim:462 SIMULATION (NEW QSim) AT 17:00:00 : #Veh=25838 lost=0 simT=56205.0s realT=6s; (s/r): 9367.5
2016-02-01 17:01:15,424  INFO Gbl:52 used RAM: 732874624B = 715697kB = 698MB  free: 816920704B = 779MB  total: 1549795328B = 1478MB
2016-02-01 17:01:16,132  INFO QNetsimEngine:388 SIMULATION (QNetsimEngine) AT 18:00:00 : #links=27 #nodes=3
2016-02-01 17:01:16,132  INFO QSim:462 SIMULATION (NEW QSim) AT 18:00:00 : #Veh=20362 lost=0 simT=59805.0s realT=7s; (s/r): 8543.57142857143
2016-02-01 17:01:16,132  INFO Gbl:52 used RAM: 842694768B = 822944kB = 803MB  free: 707100560B = 674MB  total: 1549795328B = 1478MB
2016-02-01 17:01:16,886  INFO QNetsimEngine:388 SIMULATION (QNetsimEngine) AT 19:00:00 : #links=32 #nodes=5
2016-02-01 17:01:16,886  INFO QSim:462 SIMULATION (NEW QSim) AT 19:00:00 : #Veh=14310 lost=0 simT=63405.0s realT=8s; (s/r): 7925.625
2016-02-01 17:01:16,886  INFO Gbl:52 used RAM: 593033488B = 579134kB = 565MB  free: 948897520B = 904MB  total: 1541931008B = 1470MB
2016-02-01 17:01:17,399  INFO QNetsimEngine:388 SIMULATION (QNetsimEngine) AT 20:00:00 : #links=21 #nodes=0
2016-02-01 17:01:17,399  INFO QSim:462 SIMULATION (NEW QSim) AT 20:00:00 : #Veh=9507 lost=0 simT=67005.0s realT=8s; (s/r): 8375.625
2016-02-01 17:01:17,399  INFO Gbl:52 used RAM: 666996016B = 651363kB = 636MB  free: 874934992B = 834MB  total: 1541931008B = 1470MB
2016-02-01 17:01:17,799  INFO QNetsimEngine:388 SIMULATION (QNetsimEngine) AT 21:00:00 : #links=17 #nodes=0
2016-02-01 17:01:17,799  INFO QSim:462 SIMULATION (NEW QSim) AT 21:00:00 : #Veh=5820 lost=0 simT=70605.0s realT=9s; (s/r): 7845.0
2016-02-01 17:01:17,799  INFO Gbl:52 used RAM: 722644320B = 705707kB = 689MB  free: 819286688B = 781MB  total: 1541931008B = 1470MB
2016-02-01 17:01:18,155  INFO QNetsimEngine:388 SIMULATION (QNetsimEngine) AT 22:00:00 : #links=17 #nodes=1
2016-02-01 17:01:18,156  INFO QSim:462 SIMULATION (NEW QSim) AT 22:00:00 : #Veh=2646 lost=0 simT=74205.0s realT=9s; (s/r): 8245.0
2016-02-01 17:01:18,156  INFO Gbl:52 used RAM: 765612576B = 747668kB = 730MB  free: 776318432B = 740MB  total: 1541931008B = 1470MB
2016-02-01 17:01:18,421  INFO QNetsimEngine:388 SIMULATION (QNetsimEngine) AT 23:00:00 : #links=10 #nodes=0
2016-02-01 17:01:18,421  INFO QSim:462 SIMULATION (NEW QSim) AT 23:00:00 : #Veh=641 lost=0 simT=77805.0s realT=9s; (s/r): 8645.0
2016-02-01 17:01:18,422  INFO Gbl:52 used RAM: 799122864B = 780393kB = 762MB  free: 742808144B = 708MB  total: 1541931008B = 1470MB
2016-02-01 17:01:18,551  INFO QNetsimEngine:388 SIMULATION (QNetsimEngine) AT 24:00:00 : #links=0 #nodes=0
2016-02-01 17:01:18,551  INFO QSim:462 SIMULATION (NEW QSim) AT 24:00:00 : #Veh=234 lost=0 simT=81405.0s realT=9s; (s/r): 9045.0
2016-02-01 17:01:18,551  INFO Gbl:52 used RAM: 805462832B = 786584kB = 768MB  free: 736468176B = 702MB  total: 1541931008B = 1470MB
2016-02-01 17:01:18,649  INFO QNetsimEngine:388 SIMULATION (QNetsimEngine) AT 25:00:00 : #links=0 #nodes=0
2016-02-01 17:01:18,649  INFO QSim:462 SIMULATION (NEW QSim) AT 25:00:00 : #Veh=206 lost=0 simT=85005.0s realT=10s; (s/r): 8500.5
2016-02-01 17:01:18,649  INFO Gbl:52 used RAM: 807978760B = 789041kB = 770MB  free: 733952248B = 699MB  total: 1541931008B = 1470MB
2016-02-01 17:01:18,758  INFO QNetsimEngine:388 SIMULATION (QNetsimEngine) AT 26:00:00 : #links=0 #nodes=0
2016-02-01 17:01:18,759  INFO QSim:462 SIMULATION (NEW QSim) AT 26:00:00 : #Veh=179 lost=0 simT=88605.0s realT=10s; (s/r): 8860.5
2016-02-01 17:01:18,759  INFO Gbl:52 used RAM: 810494688B = 791498kB = 772MB  free: 731436320B = 697MB  total: 1541931008B = 1470MB
2016-02-01 17:01:18,855  INFO QNetsimEngine:388 SIMULATION (QNetsimEngine) AT 27:00:00 : #links=0 #nodes=0
2016-02-01 17:01:18,855  INFO QSim:462 SIMULATION (NEW QSim) AT 27:00:00 : #Veh=156 lost=0 simT=92205.0s realT=10s; (s/r): 9220.5
2016-02-01 17:01:18,855  INFO Gbl:52 used RAM: 810494688B = 791498kB = 772MB  free: 731436320B = 697MB  total: 1541931008B = 1470MB
2016-02-01 17:01:18,963  INFO QNetsimEngine:388 SIMULATION (QNetsimEngine) AT 28:00:00 : #links=0 #nodes=0
2016-02-01 17:01:18,963  INFO QSim:462 SIMULATION (NEW QSim) AT 28:00:00 : #Veh=142 lost=0 simT=95805.0s realT=10s; (s/r): 9580.5
2016-02-01 17:01:18,963  INFO Gbl:52 used RAM: 813010616B = 793955kB = 775MB  free: 728920392B = 695MB  total: 1541931008B = 1470MB
2016-02-01 17:01:18,964  INFO AbstractController$6:225 ### ITERATION 20 fires after mobsim event
2016-02-01 17:01:18,964  INFO ControlerListenerManager:244 calling notifyAfterMobsim on org.matsim.core.controler.corelisteners.EventsHandlingImpl
2016-02-01 17:01:18,965  INFO Gbl:185 Thread performance: Thread=class org.matsim.core.events.SimStepParallelEventsManagerImpl$ProcessEventsRunnable0  cpu-time=7.890625sec
2016-02-01 17:01:18,965  INFO ControlerListenerManager:249 calling notifyAfterMobsim on org.matsim.analysis.LegTimesControlerListener
2016-02-01 17:01:18,965  INFO LegTimesControlerListener:50 [20] average trip (probably: leg) duration is: 269 seconds = 00:04:29
2016-02-01 17:01:18,965  INFO ControlerListenerManager:252 [it.20] all ControlerAfterMobsimListeners called.
2016-02-01 17:01:18,965  INFO AbstractController$4:162 ### ITERATION 20 fires scoring event
2016-02-01 17:01:18,966  INFO ControlerListenerManager:184 calling notifyScoring on org.matsim.core.controler.corelisteners.PlansScoringImpl
2016-02-01 17:01:19,024  INFO EventsToScore:203 it: 20 msaStart: null
2016-02-01 17:01:19,041  INFO ControlerListenerManager:195 [it.20] all ControlerScoringListeners called.
2016-02-01 17:01:19,041  INFO AbstractController$5:170 ### ITERATION 20 fires iteration end event
2016-02-01 17:01:19,042  INFO ControlerListenerManager:161 calling notifyIterationEnds on org.matsim.core.controler.corelisteners.EventsHandlingImpl
2016-02-01 17:01:19,043  INFO EventsManagerImpl:161 removing Event-Handler: org.matsim.core.events.algorithms.EventWriterXML
2016-02-01 17:01:19,043  INFO EventsManagerImpl:161 removing Event-Handler: org.matsim.core.events.algorithms.EventWriterXML
2016-02-01 17:01:19,043  INFO ControlerListenerManager:161 calling notifyIterationEnds on org.matsim.core.controler.corelisteners.PlansScoringImpl
2016-02-01 17:01:19,043  INFO ControlerListenerManager:168 calling notifyIterationEnds on org.matsim.counts.CountsControlerListener
2016-02-01 17:01:19,043  INFO CountSimComparisonTableWriter:93 Writing CountsSimComparison to ./output/ITERS/it.20/20.countscompare.txt
2016-02-01 17:01:19,044  INFO CountSimComparisonTableWriter:127 Writing 'average weekday traffic volume' to ./output/ITERS/it.20/20.countscompareAWTV.txt
2016-02-01 17:01:19,044  INFO ControlerListenerManager:168 calling notifyIterationEnds on org.matsim.analysis.ScoreStatsControlerListener
2016-02-01 17:01:19,056  INFO ScoreStatsControlerListener:185 -- avg. score of the executed plan of each agent: 74.83551239961349
2016-02-01 17:01:19,056  INFO ScoreStatsControlerListener:186 -- avg. score of the worst plan of each agent: 61.31378573288452
2016-02-01 17:01:19,056  INFO ScoreStatsControlerListener:187 -- avg. of the avg. plan score per agent: 71.05440550896192
2016-02-01 17:01:19,056  INFO ScoreStatsControlerListener:188 -- avg. score of the best plan of each agent: 78.56371650842668
2016-02-01 17:01:19,115  INFO ControlerListenerManager:168 calling notifyIterationEnds on org.matsim.analysis.TravelDistanceStatsControlerListener
2016-02-01 17:01:19,117  INFO TravelDistanceStats:128 [TravelDistanceStats] using 8 thread(s).
2016-02-01 17:01:19,131  INFO TravelDistanceStats:141 [TravelDistanceStats] all threads finished.
2016-02-01 17:01:19,131  INFO TravelDistanceStats:161 -- average of the average leg distance per plan (executed plans only): 2122.414153396165
2016-02-01 17:01:19,131  INFO TravelDistanceStats:162 (TravelDistanceStats takes an average over all legs where the simulation reports travelled distances. These are car legs, pt legs,
2016-02-01 17:01:19,131  INFO TravelDistanceStats:163 (and teleported legs whose route contains a distance.)
2016-02-01 17:01:19,196  INFO ControlerListenerManager:168 calling notifyIterationEnds on org.matsim.analysis.LegHistogramListener
2016-02-01 17:01:19,200  INFO LegHistogramListener:72 number of legs:	269898	100%
2016-02-01 17:01:19,200  INFO LegHistogramListener:79 number of pt legs:	88772	32.890943986246654%
2016-02-01 17:01:19,201  INFO LegHistogramListener:79 number of transit_walk legs:	181126	67.10905601375335%
2016-02-01 17:01:19,624  INFO ControlerListenerManager:168 calling notifyIterationEnds on org.matsim.analysis.LinkStatsControlerListener
2016-02-01 17:01:19,708  INFO ControlerListenerManager:172 [it.20] all ControlerIterationEndsListeners called.
2016-02-01 17:01:19,861  INFO AbstractController:180 ### ITERATION 20 ENDS
2016-02-01 17:01:19,861  INFO AbstractController:181 ###################################################
2016-02-01 17:01:19,861  INFO MatsimRuntimeModifications:108 S H U T D O W N   ---   start shutdown.
2016-02-01 17:01:19,861  INFO ControlerListenerManager:122 calling notifyShutdown on org.matsim.core.controler.corelisteners.EventsHandlingImpl
2016-02-01 17:01:19,861  INFO ControlerListenerManager:122 calling notifyShutdown on org.matsim.core.controler.corelisteners.DumpDataAtEndImpl
2016-02-01 17:01:19,874  INFO Counter:51 [PopulationWriter] dumped person # 1
2016-02-01 17:01:19,874  INFO Counter:51 [PopulationWriter] dumped person # 2
2016-02-01 17:01:19,874  INFO Counter:51 [PopulationWriter] dumped person # 4
2016-02-01 17:01:19,875  INFO Counter:51 [PopulationWriter] dumped person # 8
2016-02-01 17:01:19,877  INFO Counter:51 [PopulationWriter] dumped person # 16
2016-02-01 17:01:19,879  INFO Counter:51 [PopulationWriter] dumped person # 32
2016-02-01 17:01:19,886  INFO Counter:51 [PopulationWriter] dumped person # 64
2016-02-01 17:01:19,896  INFO Counter:51 [PopulationWriter] dumped person # 128
2016-02-01 17:01:19,918  INFO Counter:51 [PopulationWriter] dumped person # 256
2016-02-01 17:01:19,964  INFO Counter:51 [PopulationWriter] dumped person # 512
2016-02-01 17:01:20,059  INFO Counter:51 [PopulationWriter] dumped person # 1024
2016-02-01 17:01:20,250  INFO Counter:51 [PopulationWriter] dumped person # 2048
2016-02-01 17:01:20,604  INFO Counter:51 [PopulationWriter] dumped person # 4096
2016-02-01 17:01:21,318  INFO Counter:51 [PopulationWriter] dumped person # 8192
2016-02-01 17:01:22,720  INFO Counter:51 [PopulationWriter] dumped person # 16384
2016-02-01 17:01:25,644  INFO Counter:51 [PopulationWriter] dumped person # 32768
2016-02-01 17:01:27,348  INFO PopulationWriter:95 Population written to: ./output/output_plans.xml.gz
2016-02-01 17:01:27,348  INFO Counter:57 [PopulationWriter] dumped person # 42786
2016-02-01 17:01:27,353  INFO NetworkWriter:46 Writing network to file: ./output/output_network.xml.gz...
2016-02-01 17:01:27,380  INFO NetworkWriter:49 done.
2016-02-01 17:01:27,398  INFO VehicleWriterV1:55 Vehicles written to: ./output/output_transitVehicles.xml.gz
2016-02-01 17:01:27,399  INFO VehicleWriterV1:55 Vehicles written to: ./output/output_vehicles.xml.gz
2016-02-01 17:01:27,400  INFO Counter:57 [HouseholdsWriter] dumped household # 0
2016-02-01 17:01:27,403  INFO LaneDefinitionsWriter20:62 Using LaneDefinitionWriter20...
2016-02-01 17:01:27,403  INFO LaneDefinitionsWriter20:71 writing to file: ./output/output_lanes.xml.gz
2016-02-01 17:01:27,469  INFO ControlerListenerManager:127 calling notifyShutdown on org.matsim.analysis.ScoreStatsControlerListener
2016-02-01 17:01:27,470  INFO ControlerListenerManager:127 calling notifyShutdown on org.matsim.analysis.TravelDistanceStatsControlerListener
2016-02-01 17:01:27,470  INFO ControlerListenerManager:130 all ControlerShutdownListeners called.
2016-02-01 17:01:27,470  INFO MatsimRuntimeModifications:131 S H U T D O W N   ---   shutdown completed.
2016-02-01 17:01:27,470  INFO OutputDirectoryLogging:168 closing the logfile, i.e. messages sent to the logger after this message are not written to the logfile.
